# DDEC6 charges by PACMAN v1.1 (https://github.com/mtap-research/PACMAN-charge/)
data_aav4119_data_file_s5_FSR_pacman
_symmetry_space_group_name_H-M   'P 1'
_cell_length_a   30.33400000
_cell_length_b   30.33400000
_cell_length_c   34.47300000
_cell_angle_alpha   90.00000000
_cell_angle_beta   90.00000000
_cell_angle_gamma   90.00000000
_symmetry_Int_Tables_number   1
_chemical_formula_structural   Zn44.0H332.8C632N59.2O143.2
_chemical_formula_sum   'Zn44.0 H332.8 C632 N59.2 O143.2'
_cell_volume   31720.38458999
_cell_formula_units_Z   1
loop_
 _symmetry_equiv_pos_site_id
 _symmetry_equiv_pos_as_xyz
  1  'x, y, z'
loop_
 _atom_site_type_symbol
 _atom_site_label
 _atom_site_symmetry_multiplicity
 _atom_site_fract_x
 _atom_site_fract_y
 _atom_site_fract_z
 _atom_site_occupancy
 _atom_site_charge
Zn  Zn1  1  0.66666667  0.09858000  0.27363000  1.0 1.006075731
Zn  Zn2  1  0.33333333  0.90142000  0.27363000  1.0 1.0012875409
Zn  Zn3  1  0.90142000  0.66666667  0.27363000  1.0 1.006075731
Zn  Zn4  1  0.09858000  0.33333333  0.27363000  1.0 1.0012875409
Zn  Zn5  1  0.83333000  0.59858000  0.22637000  1.0 1.006075731
Zn  Zn6  1  0.16667000  0.40142000  0.22637000  1.0 1.0012875409
Zn  Zn7  1  0.59858000  0.16667000  0.22637000  1.0 1.006075731
Zn  Zn8  1  0.40142000  0.83333000  0.22637000  1.0 1.0012875409
Zn  Zn9  1  0.33333333  0.90142000  0.72637000  1.0 1.0012875409
Zn  Zn10  1  0.66666667  0.09858000  0.72637000  1.0 1.006075731
Zn  Zn11  1  0.09858000  0.33333333  0.72637000  1.0 1.0012875409
Zn  Zn12  1  0.90142000  0.66666667  0.72637000  1.0 1.006075731
Zn  Zn13  1  0.16667000  0.40142000  0.77363000  1.0 1.0012875409
Zn  Zn14  1  0.83333000  0.59858000  0.77363000  1.0 1.006075731
Zn  Zn15  1  0.40142000  0.83333000  0.77363000  1.0 1.0012875409
Zn  Zn16  1  0.59858000  0.16667000  0.77363000  1.0 1.006075731
Zn  Zn17  1  0.00000000  0.00000000  0.16536000  1.0 0.5898270035
Zn  Zn18  1  0.50000000  0.50000000  0.33464000  1.0 0.5898270035
Zn  Zn19  1  0.00000000  0.00000000  0.83464000  1.0 0.5898270035
Zn  Zn20  1  0.50000000  0.50000000  0.66536000  1.0 0.5898270035
Zn  Zn21  1  0.83571000  0.29688000  0.50000000  1.0 0.8495506258
Zn  Zn22  1  0.16429000  0.70312000  0.50000000  1.0 0.8495506258
Zn  Zn23  1  0.70312000  0.83571000  0.50000000  1.0 0.8495506258
Zn  Zn24  1  0.29688000  0.16429000  0.50000000  1.0 0.8495506258
Zn  Zn25  1  0.66429000  0.79688000  0.00000000  1.0 0.8495506258
Zn  Zn26  1  0.33571000  0.20312000  0.00000000  1.0 0.8495506258
Zn  Zn27  1  0.79688000  0.33571000  0.00000000  1.0 0.8495506258
Zn  Zn28  1  0.20312000  0.66429000  0.00000000  1.0 0.8495506258
Zn  Zn29  1  0.75910000  0.05879000  0.33446000  0.45 0.5898270035
Zn  Zn30  1  0.24090000  0.94121000  0.33446000  0.45 0.5898270035
Zn  Zn31  1  0.94121000  0.75910000  0.33446000  0.45 0.5898270035
Zn  Zn32  1  0.05879000  0.24090000  0.33446000  0.45 0.5898270035
Zn  Zn33  1  0.74090000  0.55879000  0.16554000  0.45 0.5898270035
Zn  Zn34  1  0.25910000  0.44121000  0.16554000  0.45 0.5841642232
Zn  Zn35  1  0.55879000  0.25910000  0.16554000  0.45 0.5841642232
Zn  Zn36  1  0.44121000  0.74090000  0.16554000  0.45 0.5898270035
Zn  Zn37  1  0.24090000  0.94121000  0.66554000  0.45 0.5898270035
Zn  Zn38  1  0.75910000  0.05879000  0.66554000  0.45 0.5898270035
Zn  Zn39  1  0.05879000  0.24090000  0.66554000  0.45 0.5898270035
Zn  Zn40  1  0.94121000  0.75910000  0.66554000  0.45 0.5898270035
Zn  Zn41  1  0.25910000  0.44121000  0.83446000  0.45 0.5841642232
Zn  Zn42  1  0.74090000  0.55879000  0.83446000  0.45 0.5898270035
Zn  Zn43  1  0.44121000  0.74090000  0.83446000  0.45 0.5898270035
Zn  Zn44  1  0.55879000  0.25910000  0.83446000  0.45 0.5841642232
Zn  Zn45  1  0.76310000  0.08853000  0.32378000  0.55 0.4929791153
Zn  Zn46  1  0.23690000  0.91147000  0.32378000  0.55 0.5012726
Zn  Zn47  1  0.91147000  0.76310000  0.32378000  0.55 0.5012726
Zn  Zn48  1  0.08853000  0.23690000  0.32378000  0.55 0.4929791153
Zn  Zn49  1  0.73690000  0.58853000  0.17622000  0.55 0.5012726
Zn  Zn50  1  0.26310000  0.41147000  0.17622000  0.55 0.5012726
Zn  Zn51  1  0.58853000  0.26310000  0.17622000  0.55 0.5012726
Zn  Zn52  1  0.41147000  0.73690000  0.17622000  0.55 0.5012726
Zn  Zn53  1  0.23690000  0.91147000  0.67622000  0.55 0.5012726
Zn  Zn54  1  0.76310000  0.08853000  0.67622000  0.55 0.4929791153
Zn  Zn55  1  0.08853000  0.23690000  0.67622000  0.55 0.4929791153
Zn  Zn56  1  0.91147000  0.76310000  0.67622000  0.55 0.5012726
Zn  Zn57  1  0.26310000  0.41147000  0.82378000  0.55 0.5012726
Zn  Zn58  1  0.73690000  0.58853000  0.82378000  0.55 0.5012726
Zn  Zn59  1  0.41147000  0.73690000  0.82378000  0.55 0.5012726
Zn  Zn60  1  0.58853000  0.26310000  0.82378000  0.55 0.5012726
H  H1  1  0.94070000  0.15920000  0.17800000  1.0 0.1300701638
H  H2  1  0.87580000  0.11420000  0.17760000  1.0 0.1300701638
H  H3  1  0.83370000  0.01830000  0.11710000  1.0 0.1300701638
H  H4  1  0.75860000  0.03210000  0.11350000  1.0 0.1212013231
H  H5  1  0.72020000  0.05400000  0.16850000  1.0 0.1300701638
H  H6  1  0.83220000  0.04840000  0.23060000  1.0 0.1300701638
H  H7  1  0.59080000  0.00490000  0.32530000  1.0 0.137655952
H  H8  1  0.55090000  0.95120000  0.35790000  1.0 0.1212013231
H  H9  1  0.58520000  0.90780000  0.40440000  1.0 0.1300701638
H  H10  1  0.69920000  0.97190000  0.38570000  1.0 0.1300701638
H  H11  1  0.64650000  0.22000000  0.32480000  1.0 0.1300701638
H  H12  1  0.63780000  0.28400000  0.36080000  1.0 0.1097138611
H  H13  1  0.68940000  0.30280000  0.40760000  1.0 0.1212013231
H  H14  1  0.75850000  0.19340000  0.38250000  1.0 0.137655952
H  H15  1  0.68480000  0.22850000  0.46740000  1.0 0.1212013231
H  H16  1  0.79600000  0.28900000  0.35480000  1.0 0.1300701638
H  H17  1  0.86850000  0.31870000  0.35350000  1.0 0.1300701638
H  H18  1  0.97950000  0.37520000  0.46410000  1.0 0.1212013231
H  H19  1  0.05930000  0.84080000  0.17800000  1.0 0.1300701638
H  H20  1  0.12420000  0.88580000  0.17760000  1.0 0.1300701638
H  H21  1  0.16630000  0.98170000  0.11710000  1.0 0.1300701638
H  H22  1  0.24140000  0.96790000  0.11350000  1.0 0.1212013231
H  H23  1  0.27980000  0.94600000  0.16850000  1.0 0.1300701638
H  H24  1  0.16780000  0.95160000  0.23060000  1.0 0.1300701638
H  H25  1  0.40920000  0.99510000  0.32530000  1.0 0.137655952
H  H26  1  0.44910000  0.04880000  0.35790000  1.0 0.1212013231
H  H27  1  0.41480000  0.09220000  0.40440000  1.0 0.1300701638
H  H28  1  0.30080000  0.02810000  0.38570000  1.0 0.137655952
H  H29  1  0.35350000  0.78000000  0.32480000  1.0 0.1300701638
H  H30  1  0.36220000  0.71600000  0.36080000  1.0 0.1097138611
H  H31  1  0.31060000  0.69720000  0.40760000  1.0 0.1212013231
H  H32  1  0.24150000  0.80660000  0.38250000  1.0 0.137655952
H  H33  1  0.31520000  0.77150000  0.46740000  1.0 0.1212013231
H  H34  1  0.20400000  0.71100000  0.35480000  1.0 0.1300701638
H  H35  1  0.13150000  0.68130000  0.35350000  1.0 0.1300701638
H  H36  1  0.02050000  0.62480000  0.46410000  1.0 0.1212013231
H  H37  1  0.84080000  0.94070000  0.17800000  1.0 0.1300701638
H  H38  1  0.88580000  0.87580000  0.17760000  1.0 0.1300701638
H  H39  1  0.98170000  0.83370000  0.11710000  1.0 0.1300701638
H  H40  1  0.96790000  0.75860000  0.11350000  1.0 0.1212013231
H  H41  1  0.94600000  0.72020000  0.16850000  1.0 0.1300701638
H  H42  1  0.95160000  0.83220000  0.23060000  1.0 0.1300701638
H  H43  1  0.99510000  0.59080000  0.32530000  1.0 0.137655952
H  H44  1  0.04880000  0.55090000  0.35790000  1.0 0.1212013231
H  H45  1  0.09220000  0.58520000  0.40440000  1.0 0.1300701638
H  H46  1  0.02810000  0.69920000  0.38570000  1.0 0.137655952
H  H47  1  0.78000000  0.64650000  0.32480000  1.0 0.1300701638
H  H48  1  0.71600000  0.63780000  0.36080000  1.0 0.1097138611
H  H49  1  0.69720000  0.68940000  0.40760000  1.0 0.1212013231
H  H50  1  0.80660000  0.75850000  0.38250000  1.0 0.137655952
H  H51  1  0.77150000  0.68480000  0.46740000  1.0 0.1212013231
H  H52  1  0.71100000  0.79600000  0.35480000  1.0 0.1300701638
H  H53  1  0.68130000  0.86850000  0.35350000  1.0 0.1300701638
H  H54  1  0.62480000  0.97950000  0.46410000  1.0 0.1212013231
H  H55  1  0.15920000  0.05930000  0.17800000  1.0 0.1300701638
H  H56  1  0.11420000  0.12420000  0.17760000  1.0 0.1300701638
H  H57  1  0.01830000  0.16630000  0.11710000  1.0 0.1300701638
H  H58  1  0.03210000  0.24140000  0.11350000  1.0 0.1212013231
H  H59  1  0.05400000  0.27980000  0.16850000  1.0 0.1300701638
H  H60  1  0.04840000  0.16780000  0.23060000  1.0 0.1300701638
H  H61  1  0.00490000  0.40920000  0.32530000  1.0 0.137655952
H  H62  1  0.95120000  0.44910000  0.35790000  1.0 0.1212013231
H  H63  1  0.90780000  0.41480000  0.40440000  1.0 0.1300701638
H  H64  1  0.97190000  0.30080000  0.38570000  1.0 0.1300701638
H  H65  1  0.22000000  0.35350000  0.32480000  1.0 0.1300701638
H  H66  1  0.28400000  0.36220000  0.36080000  1.0 0.1097138611
H  H67  1  0.30280000  0.31060000  0.40760000  1.0 0.1212013231
H  H68  1  0.19340000  0.24150000  0.38250000  1.0 0.137655952
H  H69  1  0.22850000  0.31520000  0.46740000  1.0 0.1212013231
H  H70  1  0.28900000  0.20400000  0.35480000  1.0 0.1300701638
H  H71  1  0.31870000  0.13150000  0.35350000  1.0 0.1300701638
H  H72  1  0.37520000  0.02050000  0.46410000  1.0 0.1212013231
H  H73  1  0.55930000  0.65920000  0.32200000  1.0 0.1300701638
H  H74  1  0.62420000  0.61420000  0.32240000  1.0 0.1300701638
H  H75  1  0.66630000  0.51830000  0.38290000  1.0 0.1300701638
H  H76  1  0.74140000  0.53210000  0.38650000  1.0 0.1212013231
H  H77  1  0.77980000  0.55400000  0.33150000  1.0 0.1300701638
H  H78  1  0.66780000  0.54840000  0.26940000  1.0 0.1300701638
H  H79  1  0.90920000  0.50490000  0.17470000  1.0 0.137655952
H  H80  1  0.94910000  0.45120000  0.14210000  1.0 0.1097138611
H  H81  1  0.91480000  0.40780000  0.09560000  1.0 0.1300701638
H  H82  1  0.80080000  0.47190000  0.11430000  1.0 0.1300701638
H  H83  1  0.85350000  0.72000000  0.17520000  1.0 0.1300701638
H  H84  1  0.86220000  0.78400000  0.13920000  1.0 0.1097138611
H  H85  1  0.81060000  0.80280000  0.09240000  1.0 0.1212013231
H  H86  1  0.74150000  0.69340000  0.11750000  1.0 0.137655952
H  H87  1  0.81520000  0.72850000  0.03260000  1.0 0.1212013231
H  H88  1  0.70400000  0.78900000  0.14520000  1.0 0.1300701638
H  H89  1  0.63150000  0.81870000  0.14650000  1.0 0.1300701638
H  H90  1  0.52050000  0.87520000  0.03590000  1.0 0.1212013231
H  H91  1  0.44070000  0.34080000  0.32200000  1.0 0.1300701638
H  H92  1  0.37580000  0.38580000  0.32240000  1.0 0.1300701638
H  H93  1  0.33370000  0.48170000  0.38290000  1.0 0.1300701638
H  H94  1  0.25860000  0.46790000  0.38650000  1.0 0.1212013231
H  H95  1  0.22020000  0.44600000  0.33150000  1.0 0.1300701638
H  H96  1  0.33220000  0.45160000  0.26940000  1.0 0.1300701638
H  H97  1  0.09080000  0.49510000  0.17470000  1.0 0.137655952
H  H98  1  0.05090000  0.54880000  0.14210000  1.0 0.1097138611
H  H99  1  0.08520000  0.59220000  0.09560000  1.0 0.1300701638
H  H100  1  0.19920000  0.52810000  0.11430000  1.0 0.137655952
H  H101  1  0.14650000  0.28000000  0.17520000  1.0 0.1300701638
H  H102  1  0.13780000  0.21600000  0.13920000  1.0 0.1097138611
H  H103  1  0.18940000  0.19720000  0.09240000  1.0 0.1212013231
H  H104  1  0.25850000  0.30660000  0.11750000  1.0 0.137655952
H  H105  1  0.18480000  0.27150000  0.03260000  1.0 0.1212013231
H  H106  1  0.29600000  0.21100000  0.14520000  1.0 0.1300701638
H  H107  1  0.36850000  0.18130000  0.14650000  1.0 0.1300701638
H  H108  1  0.47950000  0.12480000  0.03590000  1.0 0.1212013231
H  H109  1  0.65920000  0.44070000  0.32200000  1.0 0.1300701638
H  H110  1  0.61420000  0.37580000  0.32240000  1.0 0.1300701638
H  H111  1  0.51830000  0.33370000  0.38290000  1.0 0.1300701638
H  H112  1  0.53210000  0.25860000  0.38650000  1.0 0.1212013231
H  H113  1  0.55400000  0.22020000  0.33150000  1.0 0.1300701638
H  H114  1  0.54840000  0.33220000  0.26940000  1.0 0.1300701638
H  H115  1  0.50490000  0.09080000  0.17470000  1.0 0.137655952
H  H116  1  0.45120000  0.05090000  0.14210000  1.0 0.1097138611
H  H117  1  0.40780000  0.08520000  0.09560000  1.0 0.1300701638
H  H118  1  0.47190000  0.19920000  0.11430000  1.0 0.137655952
H  H119  1  0.72000000  0.14650000  0.17520000  1.0 0.1300701638
H  H120  1  0.78400000  0.13780000  0.13920000  1.0 0.1097138611
H  H121  1  0.80280000  0.18940000  0.09240000  1.0 0.1212013231
H  H122  1  0.69340000  0.25850000  0.11750000  1.0 0.137655952
H  H123  1  0.72850000  0.18480000  0.03260000  1.0 0.1212013231
H  H124  1  0.78900000  0.29600000  0.14520000  1.0 0.1300701638
H  H125  1  0.81870000  0.36850000  0.14650000  1.0 0.1300701638
H  H126  1  0.87520000  0.47950000  0.03590000  1.0 0.1212013231
H  H127  1  0.34080000  0.55930000  0.32200000  1.0 0.1300701638
H  H128  1  0.38580000  0.62420000  0.32240000  1.0 0.1300701638
H  H129  1  0.48170000  0.66630000  0.38290000  1.0 0.1300701638
H  H130  1  0.46790000  0.74140000  0.38650000  1.0 0.1212013231
H  H131  1  0.44600000  0.77980000  0.33150000  1.0 0.1300701638
H  H132  1  0.45160000  0.66780000  0.26940000  1.0 0.1300701638
H  H133  1  0.49510000  0.90920000  0.17470000  1.0 0.137655952
H  H134  1  0.54880000  0.94910000  0.14210000  1.0 0.1097138611
H  H135  1  0.59220000  0.91480000  0.09560000  1.0 0.1300701638
H  H136  1  0.52810000  0.80080000  0.11430000  1.0 0.1300701638
H  H137  1  0.28000000  0.85350000  0.17520000  1.0 0.1300701638
H  H138  1  0.21600000  0.86220000  0.13920000  1.0 0.1097138611
H  H139  1  0.19720000  0.81060000  0.09240000  1.0 0.1212013231
H  H140  1  0.30660000  0.74150000  0.11750000  1.0 0.137655952
H  H141  1  0.27150000  0.81520000  0.03260000  1.0 0.1212013231
H  H142  1  0.21100000  0.70400000  0.14520000  1.0 0.1300701638
H  H143  1  0.18130000  0.63150000  0.14650000  1.0 0.1300701638
H  H144  1  0.12480000  0.52050000  0.03590000  1.0 0.1212013231
H  H145  1  0.05930000  0.84080000  0.82200000  1.0 0.1300701638
H  H146  1  0.12420000  0.88580000  0.82240000  1.0 0.1300701638
H  H147  1  0.16630000  0.98170000  0.88290000  1.0 0.1300701638
H  H148  1  0.24140000  0.96790000  0.88650000  1.0 0.1212013231
H  H149  1  0.27980000  0.94600000  0.83150000  1.0 0.1300701638
H  H150  1  0.16780000  0.95160000  0.76940000  1.0 0.1300701638
H  H151  1  0.40920000  0.99510000  0.67470000  1.0 0.137655952
H  H152  1  0.44910000  0.04880000  0.64210000  1.0 0.1212013231
H  H153  1  0.41480000  0.09220000  0.59560000  1.0 0.1300701638
H  H154  1  0.30080000  0.02810000  0.61430000  1.0 0.137655952
H  H155  1  0.35350000  0.78000000  0.67520000  1.0 0.1300701638
H  H156  1  0.36220000  0.71600000  0.63920000  1.0 0.1097138611
H  H157  1  0.31060000  0.69720000  0.59240000  1.0 0.1212013231
H  H158  1  0.24150000  0.80660000  0.61750000  1.0 0.137655952
H  H159  1  0.31520000  0.77150000  0.53260000  1.0 0.1212013231
H  H160  1  0.20400000  0.71100000  0.64520000  1.0 0.1300701638
H  H161  1  0.13150000  0.68130000  0.64650000  1.0 0.1300701638
H  H162  1  0.02050000  0.62480000  0.53590000  1.0 0.1212013231
H  H163  1  0.94070000  0.15920000  0.82200000  1.0 0.1300701638
H  H164  1  0.87580000  0.11420000  0.82240000  1.0 0.1300701638
H  H165  1  0.83370000  0.01830000  0.88290000  1.0 0.1300701638
H  H166  1  0.75860000  0.03210000  0.88650000  1.0 0.1212013231
H  H167  1  0.72020000  0.05400000  0.83150000  1.0 0.1300701638
H  H168  1  0.83220000  0.04840000  0.76940000  1.0 0.1300701638
H  H169  1  0.59080000  0.00490000  0.67470000  1.0 0.137655952
H  H170  1  0.55090000  0.95120000  0.64210000  1.0 0.1212013231
H  H171  1  0.58520000  0.90780000  0.59560000  1.0 0.1300701638
H  H172  1  0.69920000  0.97190000  0.61430000  1.0 0.1300701638
H  H173  1  0.64650000  0.22000000  0.67520000  1.0 0.1300701638
H  H174  1  0.63780000  0.28400000  0.63920000  1.0 0.1097138611
H  H175  1  0.68940000  0.30280000  0.59240000  1.0 0.1212013231
H  H176  1  0.75850000  0.19340000  0.61750000  1.0 0.137655952
H  H177  1  0.68480000  0.22850000  0.53260000  1.0 0.1212013231
H  H178  1  0.79600000  0.28900000  0.64520000  1.0 0.1300701638
H  H179  1  0.86850000  0.31870000  0.64650000  1.0 0.1300701638
H  H180  1  0.97950000  0.37520000  0.53590000  1.0 0.1212013231
H  H181  1  0.15920000  0.05930000  0.82200000  1.0 0.1300701638
H  H182  1  0.11420000  0.12420000  0.82240000  1.0 0.1300701638
H  H183  1  0.01830000  0.16630000  0.88290000  1.0 0.1300701638
H  H184  1  0.03210000  0.24140000  0.88650000  1.0 0.1212013231
H  H185  1  0.05400000  0.27980000  0.83150000  1.0 0.1300701638
H  H186  1  0.04840000  0.16780000  0.76940000  1.0 0.1300701638
H  H187  1  0.00490000  0.40920000  0.67470000  1.0 0.137655952
H  H188  1  0.95120000  0.44910000  0.64210000  1.0 0.1212013231
H  H189  1  0.90780000  0.41480000  0.59560000  1.0 0.1300701638
H  H190  1  0.97190000  0.30080000  0.61430000  1.0 0.1300701638
H  H191  1  0.22000000  0.35350000  0.67520000  1.0 0.1300701638
H  H192  1  0.28400000  0.36220000  0.63920000  1.0 0.1097138611
H  H193  1  0.30280000  0.31060000  0.59240000  1.0 0.1212013231
H  H194  1  0.19340000  0.24150000  0.61750000  1.0 0.137655952
H  H195  1  0.22850000  0.31520000  0.53260000  1.0 0.1212013231
H  H196  1  0.28900000  0.20400000  0.64520000  1.0 0.1300701638
H  H197  1  0.31870000  0.13150000  0.64650000  1.0 0.1300701638
H  H198  1  0.37520000  0.02050000  0.53590000  1.0 0.1212013231
H  H199  1  0.84080000  0.94070000  0.82200000  1.0 0.1300701638
H  H200  1  0.88580000  0.87580000  0.82240000  1.0 0.1300701638
H  H201  1  0.98170000  0.83370000  0.88290000  1.0 0.1300701638
H  H202  1  0.96790000  0.75860000  0.88650000  1.0 0.1212013231
H  H203  1  0.94600000  0.72020000  0.83150000  1.0 0.1300701638
H  H204  1  0.95160000  0.83220000  0.76940000  1.0 0.1300701638
H  H205  1  0.99510000  0.59080000  0.67470000  1.0 0.137655952
H  H206  1  0.04880000  0.55090000  0.64210000  1.0 0.1212013231
H  H207  1  0.09220000  0.58520000  0.59560000  1.0 0.1300701638
H  H208  1  0.02810000  0.69920000  0.61430000  1.0 0.137655952
H  H209  1  0.78000000  0.64650000  0.67520000  1.0 0.1300701638
H  H210  1  0.71600000  0.63780000  0.63920000  1.0 0.1097138611
H  H211  1  0.69720000  0.68940000  0.59240000  1.0 0.1212013231
H  H212  1  0.80660000  0.75850000  0.61750000  1.0 0.137655952
H  H213  1  0.77150000  0.68480000  0.53260000  1.0 0.1212013231
H  H214  1  0.71100000  0.79600000  0.64520000  1.0 0.1300701638
H  H215  1  0.68130000  0.86850000  0.64650000  1.0 0.1300701638
H  H216  1  0.62480000  0.97950000  0.53590000  1.0 0.1212013231
H  H217  1  0.44070000  0.34080000  0.67800000  1.0 0.1300701638
H  H218  1  0.37580000  0.38580000  0.67760000  1.0 0.1300701638
H  H219  1  0.33370000  0.48170000  0.61710000  1.0 0.1300701638
H  H220  1  0.25860000  0.46790000  0.61350000  1.0 0.1212013231
H  H221  1  0.22020000  0.44600000  0.66850000  1.0 0.1300701638
H  H222  1  0.33220000  0.45160000  0.73060000  1.0 0.1300701638
H  H223  1  0.09080000  0.49510000  0.82530000  1.0 0.137655952
H  H224  1  0.05090000  0.54880000  0.85790000  1.0 0.1097138611
H  H225  1  0.08520000  0.59220000  0.90440000  1.0 0.1300701638
H  H226  1  0.19920000  0.52810000  0.88570000  1.0 0.137655952
H  H227  1  0.14650000  0.28000000  0.82480000  1.0 0.1300701638
H  H228  1  0.13780000  0.21600000  0.86080000  1.0 0.1097138611
H  H229  1  0.18940000  0.19720000  0.90760000  1.0 0.1212013231
H  H230  1  0.25850000  0.30660000  0.88250000  1.0 0.137655952
H  H231  1  0.18480000  0.27150000  0.96740000  1.0 0.1212013231
H  H232  1  0.29600000  0.21100000  0.85480000  1.0 0.1300701638
H  H233  1  0.36850000  0.18130000  0.85350000  1.0 0.1300701638
H  H234  1  0.47950000  0.12480000  0.96410000  1.0 0.1212013231
H  H235  1  0.55930000  0.65920000  0.67800000  1.0 0.1300701638
H  H236  1  0.62420000  0.61420000  0.67760000  1.0 0.1300701638
H  H237  1  0.66630000  0.51830000  0.61710000  1.0 0.1300701638
H  H238  1  0.74140000  0.53210000  0.61350000  1.0 0.1212013231
H  H239  1  0.77980000  0.55400000  0.66850000  1.0 0.1300701638
H  H240  1  0.66780000  0.54840000  0.73060000  1.0 0.1300701638
H  H241  1  0.90920000  0.50490000  0.82530000  1.0 0.137655952
H  H242  1  0.94910000  0.45120000  0.85790000  1.0 0.1097138611
H  H243  1  0.91480000  0.40780000  0.90440000  1.0 0.1300701638
H  H244  1  0.80080000  0.47190000  0.88570000  1.0 0.1300701638
H  H245  1  0.85350000  0.72000000  0.82480000  1.0 0.1300701638
H  H246  1  0.86220000  0.78400000  0.86080000  1.0 0.1097138611
H  H247  1  0.81060000  0.80280000  0.90760000  1.0 0.1212013231
H  H248  1  0.74150000  0.69340000  0.88250000  1.0 0.137655952
H  H249  1  0.81520000  0.72850000  0.96740000  1.0 0.1212013231
H  H250  1  0.70400000  0.78900000  0.85480000  1.0 0.1300701638
H  H251  1  0.63150000  0.81870000  0.85350000  1.0 0.1300701638
H  H252  1  0.52050000  0.87520000  0.96410000  1.0 0.1212013231
H  H253  1  0.34080000  0.55930000  0.67800000  1.0 0.1300701638
H  H254  1  0.38580000  0.62420000  0.67760000  1.0 0.1300701638
H  H255  1  0.48170000  0.66630000  0.61710000  1.0 0.1300701638
H  H256  1  0.46790000  0.74140000  0.61350000  1.0 0.1212013231
H  H257  1  0.44600000  0.77980000  0.66850000  1.0 0.1300701638
H  H258  1  0.45160000  0.66780000  0.73060000  1.0 0.1300701638
H  H259  1  0.49510000  0.90920000  0.82530000  1.0 0.137655952
H  H260  1  0.54880000  0.94910000  0.85790000  1.0 0.1097138611
H  H261  1  0.59220000  0.91480000  0.90440000  1.0 0.1300701638
H  H262  1  0.52810000  0.80080000  0.88570000  1.0 0.1300701638
H  H263  1  0.28000000  0.85350000  0.82480000  1.0 0.1300701638
H  H264  1  0.21600000  0.86220000  0.86080000  1.0 0.1097138611
H  H265  1  0.19720000  0.81060000  0.90760000  1.0 0.1212013231
H  H266  1  0.30660000  0.74150000  0.88250000  1.0 0.137655952
H  H267  1  0.27150000  0.81520000  0.96740000  1.0 0.1212013231
H  H268  1  0.21100000  0.70400000  0.85480000  1.0 0.1300701638
H  H269  1  0.18130000  0.63150000  0.85350000  1.0 0.1300701638
H  H270  1  0.12480000  0.52050000  0.96410000  1.0 0.1212013231
H  H271  1  0.65920000  0.44070000  0.67800000  1.0 0.1300701638
H  H272  1  0.61420000  0.37580000  0.67760000  1.0 0.1300701638
H  H273  1  0.51830000  0.33370000  0.61710000  1.0 0.1300701638
H  H274  1  0.53210000  0.25860000  0.61350000  1.0 0.1212013231
H  H275  1  0.55400000  0.22020000  0.66850000  1.0 0.1300701638
H  H276  1  0.54840000  0.33220000  0.73060000  1.0 0.1300701638
H  H277  1  0.50490000  0.09080000  0.82530000  1.0 0.137655952
H  H278  1  0.45120000  0.05090000  0.85790000  1.0 0.1097138611
H  H279  1  0.40780000  0.08520000  0.90440000  1.0 0.1300701638
H  H280  1  0.47190000  0.19920000  0.88570000  1.0 0.137655952
H  H281  1  0.72000000  0.14650000  0.82480000  1.0 0.1300701638
H  H282  1  0.78400000  0.13780000  0.86080000  1.0 0.1097138611
H  H283  1  0.80280000  0.18940000  0.90760000  1.0 0.1212013231
H  H284  1  0.69340000  0.25850000  0.88250000  1.0 0.137655952
H  H285  1  0.72850000  0.18480000  0.96740000  1.0 0.1212013231
H  H286  1  0.78900000  0.29600000  0.85480000  1.0 0.1300701638
H  H287  1  0.81870000  0.36850000  0.85350000  1.0 0.1300701638
H  H288  1  0.87520000  0.47950000  0.96410000  1.0 0.1212013231
H  H289  1  0.82320000  0.03120000  0.40350000  0.45 0.1027104292
H  H290  1  0.82410000  0.03400000  0.47070000  0.45 0.1097138611
H  H291  1  0.70250000  0.08640000  0.47040000  0.45 0.1300701638
H  H292  1  0.70150000  0.08360000  0.40320000  0.45 0.1097138611
H  H293  1  0.17680000  0.96880000  0.40350000  0.45 0.1027104292
H  H294  1  0.17590000  0.96600000  0.47070000  0.45 0.1097138611
H  H295  1  0.29750000  0.91360000  0.47040000  0.45 0.1300701638
H  H296  1  0.29850000  0.91640000  0.40320000  0.45 0.1097138611
H  H297  1  0.96880000  0.82320000  0.40350000  0.45 0.1097138611
H  H298  1  0.96600000  0.82410000  0.47070000  0.45 0.1097138611
H  H299  1  0.91360000  0.70250000  0.47040000  0.45 0.1300701638
H  H300  1  0.91640000  0.70150000  0.40320000  0.45 0.1097138611
H  H301  1  0.03120000  0.17680000  0.40350000  0.45 0.1027104292
H  H302  1  0.03400000  0.17590000  0.47070000  0.45 0.1097138611
H  H303  1  0.08640000  0.29750000  0.47040000  0.45 0.1300701638
H  H304  1  0.08360000  0.29850000  0.40320000  0.45 0.1097138611
H  H305  1  0.67680000  0.53120000  0.09650000  0.45 0.1027104292
H  H306  1  0.67590000  0.53400000  0.02930000  0.45 0.1097138611
H  H307  1  0.79750000  0.58640000  0.02960000  0.45 0.1300701638
H  H308  1  0.79850000  0.58360000  0.09680000  0.45 0.1097138611
H  H309  1  0.32320000  0.46880000  0.09650000  0.45 0.1027104292
H  H310  1  0.32410000  0.46600000  0.02930000  0.45 0.1097138611
H  H311  1  0.20250000  0.41360000  0.02960000  0.45 0.1300701638
H  H312  1  0.20150000  0.41640000  0.09680000  0.45 0.1097138611
H  H313  1  0.53120000  0.32320000  0.09650000  0.45 0.1027104292
H  H314  1  0.53400000  0.32410000  0.02930000  0.45 0.1097138611
H  H315  1  0.58640000  0.20250000  0.02960000  0.45 0.1300701638
H  H316  1  0.58360000  0.20150000  0.09680000  0.45 0.1097138611
H  H317  1  0.46880000  0.67680000  0.09650000  0.45 0.1027104292
H  H318  1  0.46600000  0.67590000  0.02930000  0.45 0.1097138611
H  H319  1  0.41360000  0.79750000  0.02960000  0.45 0.1300701638
H  H320  1  0.41640000  0.79850000  0.09680000  0.45 0.1097138611
H  H321  1  0.17680000  0.96880000  0.59650000  0.45 0.1027104292
H  H322  1  0.17590000  0.96600000  0.52930000  0.45 0.1097138611
H  H323  1  0.29750000  0.91360000  0.52960000  0.45 0.1300701638
H  H324  1  0.29850000  0.91640000  0.59680000  0.45 0.1097138611
H  H325  1  0.82320000  0.03120000  0.59650000  0.45 0.1027104292
H  H326  1  0.82410000  0.03400000  0.52930000  0.45 0.1097138611
H  H327  1  0.70250000  0.08640000  0.52960000  0.45 0.1300701638
H  H328  1  0.70150000  0.08360000  0.59680000  0.45 0.1097138611
H  H329  1  0.03120000  0.17680000  0.59650000  0.45 0.1027104292
H  H330  1  0.03400000  0.17590000  0.52930000  0.45 0.1097138611
H  H331  1  0.08640000  0.29750000  0.52960000  0.45 0.1300701638
H  H332  1  0.08360000  0.29850000  0.59680000  0.45 0.1097138611
H  H333  1  0.96880000  0.82320000  0.59650000  0.45 0.1097138611
H  H334  1  0.96600000  0.82410000  0.52930000  0.45 0.1097138611
H  H335  1  0.91360000  0.70250000  0.52960000  0.45 0.1300701638
H  H336  1  0.91640000  0.70150000  0.59680000  0.45 0.1097138611
H  H337  1  0.32320000  0.46880000  0.90350000  0.45 0.1027104292
H  H338  1  0.32410000  0.46600000  0.97070000  0.45 0.1097138611
H  H339  1  0.20250000  0.41360000  0.97040000  0.45 0.1300701638
H  H340  1  0.20150000  0.41640000  0.90320000  0.45 0.1097138611
H  H341  1  0.67680000  0.53120000  0.90350000  0.45 0.1027104292
H  H342  1  0.67590000  0.53400000  0.97070000  0.45 0.1097138611
H  H343  1  0.79750000  0.58640000  0.97040000  0.45 0.1300701638
H  H344  1  0.79850000  0.58360000  0.90320000  0.45 0.1097138611
H  H345  1  0.46880000  0.67680000  0.90350000  0.45 0.1027104292
H  H346  1  0.46600000  0.67590000  0.97070000  0.45 0.1097138611
H  H347  1  0.41360000  0.79750000  0.97040000  0.45 0.1300701638
H  H348  1  0.41640000  0.79850000  0.90320000  0.45 0.1097138611
H  H349  1  0.53120000  0.32320000  0.90350000  0.45 0.1027104292
H  H350  1  0.53400000  0.32410000  0.97070000  0.45 0.1097138611
H  H351  1  0.58640000  0.20250000  0.97040000  0.45 0.1300701638
H  H352  1  0.58360000  0.20150000  0.90320000  0.45 0.1097138611
H  H353  1  0.97730000  0.05770000  0.09510000  0.5 0.1027104292
H  H354  1  0.96850000  0.05600000  0.02970000  0.5 0.1027104292
H  H355  1  0.02270000  0.94230000  0.09510000  0.5 0.1027104292
H  H356  1  0.03150000  0.94400000  0.02970000  0.5 0.1027104292
H  H357  1  0.94230000  0.97730000  0.09510000  0.5 0.1027104292
H  H358  1  0.94400000  0.96850000  0.02970000  0.5 0.1027104292
H  H359  1  0.05770000  0.02270000  0.09510000  0.5 0.1027104292
H  H360  1  0.05600000  0.03150000  0.02970000  0.5 0.1027104292
H  H361  1  0.52270000  0.55770000  0.40490000  0.5 0.1027104292
H  H362  1  0.53150000  0.55600000  0.47030000  0.5 0.1027104292
H  H363  1  0.47730000  0.44230000  0.40490000  0.5 0.1027104292
H  H364  1  0.46850000  0.44400000  0.47030000  0.5 0.1027104292
H  H365  1  0.55770000  0.47730000  0.40490000  0.5 0.1027104292
H  H366  1  0.55600000  0.46850000  0.47030000  0.5 0.1027104292
H  H367  1  0.44230000  0.52270000  0.40490000  0.5 0.1027104292
H  H368  1  0.44400000  0.53150000  0.47030000  0.5 0.1027104292
H  H369  1  0.02270000  0.94230000  0.90490000  0.5 0.1027104292
H  H370  1  0.03150000  0.94400000  0.97030000  0.5 0.1027104292
H  H371  1  0.97730000  0.05770000  0.90490000  0.5 0.1027104292
H  H372  1  0.96850000  0.05600000  0.97030000  0.5 0.1027104292
H  H373  1  0.05770000  0.02270000  0.90490000  0.5 0.1027104292
H  H374  1  0.05600000  0.03150000  0.97030000  0.5 0.1027104292
H  H375  1  0.94230000  0.97730000  0.90490000  0.5 0.1027104292
H  H376  1  0.94400000  0.96850000  0.97030000  0.5 0.1027104292
H  H377  1  0.47730000  0.44230000  0.59510000  0.5 0.1027104292
H  H378  1  0.46850000  0.44400000  0.52970000  0.5 0.1027104292
H  H379  1  0.52270000  0.55770000  0.59510000  0.5 0.1027104292
H  H380  1  0.53150000  0.55600000  0.52970000  0.5 0.1027104292
H  H381  1  0.44230000  0.52270000  0.59510000  0.5 0.1027104292
H  H382  1  0.44400000  0.53150000  0.52970000  0.5 0.1027104292
H  H383  1  0.55770000  0.47730000  0.59510000  0.5 0.1027104292
H  H384  1  0.55600000  0.46850000  0.52970000  0.5 0.1027104292
C  C1  1  0.97850000  0.09720000  0.17643000  1.0 0.2157616556
C  C2  1  0.93970000  0.12860000  0.17730000  1.0 -0.1675201341
C  C3  1  0.90450000  0.10360000  0.17690000  1.0 -0.1890779055
C  C4  1  0.91620000  0.05700000  0.17507000  1.0 0.1717731212
C  C5  1  0.88930000  0.02250000  0.17543000  1.0 -0.0990483297
C  C6  1  0.84038000  0.03201000  0.17424000  1.0 0.0875487714
C  C7  1  0.81834000  0.02710000  0.13916000  1.0 -0.1637905792
C  C8  1  0.77333000  0.03530000  0.13699000  1.0 -0.0990483297
C  C9  1  0.75036000  0.04850000  0.16991000  1.0 -0.1096095713
C  C10  1  0.77240000  0.05337000  0.20500000  1.0 -0.0634726993
C  C11  1  0.81741000  0.04514000  0.20717000  1.0 -0.1507528988
C  C12  1  0.74720000  0.06710000  0.23920000  1.0 0.5841642232
C  C13  1  0.67690000  0.03120000  0.33370000  1.0 0.5198607841
C  C14  1  0.64890000  0.99370000  0.35230000  1.0 -0.0108323345
C  C15  1  0.60450000  0.98750000  0.34390000  1.0 -0.1198971718
C  C16  1  0.58070000  0.95530000  0.36350000  1.0 -0.0990483297
C  C17  1  0.60120000  0.92930000  0.39130000  1.0 -0.1300488649
C  C18  1  0.64560000  0.93550000  0.39965000  1.0 0.0875487714
C  C19  1  0.66950000  0.96770000  0.38012000  1.0 -0.1507528988
C  C20  1  0.70620000  0.15790000  0.32790000  1.0 0.5523483069
C  C21  1  0.70340000  0.20030000  0.35011000  1.0 -0.0157708227
C  C22  1  0.66720000  0.22750000  0.34360000  1.0 -0.1096095713
C  C23  1  0.66200000  0.26590000  0.36510000  1.0 -0.0990483297
C  C24  1  0.69290000  0.27710000  0.39320000  1.0 -0.1407032385
C  C25  1  0.72910000  0.24990000  0.39971000  1.0 0.0875487714
C  C26  1  0.73432000  0.21150000  0.37817000  1.0 -0.1507528988
C  C27  1  0.70860000  0.23710000  0.48280000  1.0 -0.1407032385
C  C28  1  0.75200000  0.25280000  0.46730000  1.0 0.1623741496
C  C29  1  0.76290000  0.26200000  0.42960000  1.0 -0.0990483297
C  C30  1  0.80230000  0.28100000  0.41790000  1.0 0.2114292686
C  C31  1  0.81390000  0.29360000  0.37630000  1.0 -0.1675201341
C  C32  1  0.85220000  0.31130000  0.37540000  1.0 -0.1198971718
C  C33  1  0.86540000  0.31790000  0.41730000  1.0 0.1623741496
C  C34  1  0.90620000  0.33150000  0.43010000  1.0 -0.0990483297
C  C35  1  0.91910000  0.34090000  0.46750000  1.0 0.1818324835
C  C36  1  0.95800000  0.36300000  0.48010000  1.0 -0.1890779055
C  C37  1  0.02150000  0.90280000  0.17643000  1.0 0.2157616556
C  C38  1  0.06030000  0.87140000  0.17730000  1.0 -0.1675201341
C  C39  1  0.09550000  0.89640000  0.17690000  1.0 -0.1890779055
C  C40  1  0.08380000  0.94300000  0.17507000  1.0 0.1717731212
C  C41  1  0.11070000  0.97750000  0.17543000  1.0 -0.0990483297
C  C42  1  0.15962000  0.96799000  0.17424000  1.0 0.0875487714
C  C43  1  0.18166000  0.97290000  0.13916000  1.0 -0.1637905792
C  C44  1  0.22667000  0.96470000  0.13699000  1.0 -0.0990483297
C  C45  1  0.24964000  0.95150000  0.16991000  1.0 -0.1096095713
C  C46  1  0.22760000  0.94663000  0.20500000  1.0 -0.0634726993
C  C47  1  0.18259000  0.95486000  0.20717000  1.0 -0.1507528988
C  C48  1  0.25280000  0.93290000  0.23920000  1.0 0.5841642232
C  C49  1  0.32310000  0.96880000  0.33370000  1.0 0.5198607841
C  C50  1  0.35110000  0.00630000  0.35230000  1.0 -0.0108323345
C  C51  1  0.39550000  0.01250000  0.34390000  1.0 -0.1198971718
C  C52  1  0.41930000  0.04470000  0.36350000  1.0 -0.0990483297
C  C53  1  0.39880000  0.07070000  0.39130000  1.0 -0.1300488649
C  C54  1  0.35440000  0.06450000  0.39965000  1.0 0.0875487714
C  C55  1  0.33050000  0.03230000  0.38012000  1.0 -0.1507528988
C  C56  1  0.29380000  0.84210000  0.32790000  1.0 0.5523483069
C  C57  1  0.29660000  0.79970000  0.35011000  1.0 -0.0157708227
C  C58  1  0.33280000  0.77250000  0.34360000  1.0 -0.1096095713
C  C59  1  0.33800000  0.73410000  0.36510000  1.0 -0.0990483297
C  C60  1  0.30710000  0.72290000  0.39320000  1.0 -0.1407032385
C  C61  1  0.27090000  0.75010000  0.39971000  1.0 0.0875487714
C  C62  1  0.26568000  0.78850000  0.37817000  1.0 -0.1407032385
C  C63  1  0.29140000  0.76290000  0.48280000  1.0 -0.1407032385
C  C64  1  0.24800000  0.74720000  0.46730000  1.0 0.1623741496
C  C65  1  0.23710000  0.73800000  0.42960000  1.0 -0.0990483297
C  C66  1  0.19770000  0.71900000  0.41790000  1.0 0.2114292686
C  C67  1  0.18610000  0.70640000  0.37630000  1.0 -0.1675201341
C  C68  1  0.14780000  0.68870000  0.37540000  1.0 -0.1198971718
C  C69  1  0.13460000  0.68210000  0.41730000  1.0 0.1623741496
C  C70  1  0.09380000  0.66850000  0.43010000  1.0 -0.0990483297
C  C71  1  0.08090000  0.65910000  0.46750000  1.0 0.1818324835
C  C72  1  0.04200000  0.63700000  0.48010000  1.0 -0.1890779055
C  C73  1  0.90280000  0.97850000  0.17643000  1.0 0.2157616556
C  C74  1  0.87140000  0.93970000  0.17730000  1.0 -0.1675201341
C  C75  1  0.89640000  0.90450000  0.17690000  1.0 -0.1890779055
C  C76  1  0.94300000  0.91620000  0.17507000  1.0 0.1717731212
C  C77  1  0.97750000  0.88930000  0.17543000  1.0 -0.0990483297
C  C78  1  0.96799000  0.84038000  0.17424000  1.0 0.0875487714
C  C79  1  0.97290000  0.81834000  0.13916000  1.0 -0.1637905792
C  C80  1  0.96470000  0.77333000  0.13699000  1.0 -0.0990483297
C  C81  1  0.95150000  0.75036000  0.16991000  1.0 -0.1096095713
C  C82  1  0.94663000  0.77240000  0.20500000  1.0 -0.0634726993
C  C83  1  0.95486000  0.81741000  0.20717000  1.0 -0.1507528988
C  C84  1  0.93290000  0.74720000  0.23920000  1.0 0.5841642232
C  C85  1  0.96880000  0.67690000  0.33370000  1.0 0.5198607841
C  C86  1  0.00630000  0.64890000  0.35230000  1.0 -0.0108323345
C  C87  1  0.01250000  0.60450000  0.34390000  1.0 -0.1198971718
C  C88  1  0.04470000  0.58070000  0.36350000  1.0 -0.0990483297
C  C89  1  0.07070000  0.60120000  0.39130000  1.0 -0.1300488649
C  C90  1  0.06450000  0.64560000  0.39965000  1.0 0.0875487714
C  C91  1  0.03230000  0.66950000  0.38012000  1.0 -0.1507528988
C  C92  1  0.84210000  0.70620000  0.32790000  1.0 0.5523483069
C  C93  1  0.79970000  0.70340000  0.35011000  1.0 -0.0157708227
C  C94  1  0.77250000  0.66720000  0.34360000  1.0 -0.1096095713
C  C95  1  0.73410000  0.66200000  0.36510000  1.0 -0.0990483297
C  C96  1  0.72290000  0.69290000  0.39320000  1.0 -0.1407032385
C  C97  1  0.75010000  0.72910000  0.39971000  1.0 0.0875487714
C  C98  1  0.78850000  0.73432000  0.37817000  1.0 -0.1407032385
C  C99  1  0.76290000  0.70860000  0.48280000  1.0 -0.1407032385
C  C100  1  0.74720000  0.75200000  0.46730000  1.0 0.1623741496
C  C101  1  0.73800000  0.76290000  0.42960000  1.0 -0.0990483297
C  C102  1  0.71900000  0.80230000  0.41790000  1.0 0.2114292686
C  C103  1  0.70640000  0.81390000  0.37630000  1.0 -0.1637905792
C  C104  1  0.68870000  0.85220000  0.37540000  1.0 -0.1198971718
C  C105  1  0.68210000  0.86540000  0.41730000  1.0 0.1623741496
C  C106  1  0.66850000  0.90620000  0.43010000  1.0 -0.0990483297
C  C107  1  0.65910000  0.91910000  0.46750000  1.0 0.1818324835
C  C108  1  0.63700000  0.95800000  0.48010000  1.0 -0.1890779055
C  C109  1  0.09720000  0.02150000  0.17643000  1.0 0.2157616556
C  C110  1  0.12860000  0.06030000  0.17730000  1.0 -0.1675201341
C  C111  1  0.10360000  0.09550000  0.17690000  1.0 -0.1890779055
C  C112  1  0.05700000  0.08380000  0.17507000  1.0 0.1717731212
C  C113  1  0.02250000  0.11070000  0.17543000  1.0 -0.1096095713
C  C114  1  0.03201000  0.15962000  0.17424000  1.0 0.0875487714
C  C115  1  0.02710000  0.18166000  0.13916000  1.0 -0.1637905792
C  C116  1  0.03530000  0.22667000  0.13699000  1.0 -0.0990483297
C  C117  1  0.04850000  0.24964000  0.16991000  1.0 -0.1096095713
C  C118  1  0.05337000  0.22760000  0.20500000  1.0 -0.0634726993
C  C119  1  0.04514000  0.18259000  0.20717000  1.0 -0.1507528988
C  C120  1  0.06710000  0.25280000  0.23920000  1.0 0.5841642232
C  C121  1  0.03120000  0.32310000  0.33370000  1.0 0.5198607841
C  C122  1  0.99370000  0.35110000  0.35230000  1.0 -0.0108323345
C  C123  1  0.98750000  0.39550000  0.34390000  1.0 -0.1198971718
C  C124  1  0.95530000  0.41930000  0.36350000  1.0 -0.0990483297
C  C125  1  0.92930000  0.39880000  0.39130000  1.0 -0.1300488649
C  C126  1  0.93550000  0.35440000  0.39965000  1.0 0.0875487714
C  C127  1  0.96770000  0.33050000  0.38012000  1.0 -0.1507528988
C  C128  1  0.15790000  0.29380000  0.32790000  1.0 0.5523483069
C  C129  1  0.20030000  0.29660000  0.35011000  1.0 -0.0157708227
C  C130  1  0.22750000  0.33280000  0.34360000  1.0 -0.1096095713
C  C131  1  0.26590000  0.33800000  0.36510000  1.0 -0.0990483297
C  C132  1  0.27710000  0.30710000  0.39320000  1.0 -0.1407032385
C  C133  1  0.24990000  0.27090000  0.39971000  1.0 0.0875487714
C  C134  1  0.21150000  0.26568000  0.37817000  1.0 -0.1507528988
C  C135  1  0.23710000  0.29140000  0.48280000  1.0 -0.1407032385
C  C136  1  0.25280000  0.24800000  0.46730000  1.0 0.1623741496
C  C137  1  0.26200000  0.23710000  0.42960000  1.0 -0.0990483297
C  C138  1  0.28100000  0.19770000  0.41790000  1.0 0.2114292686
C  C139  1  0.29360000  0.18610000  0.37630000  1.0 -0.1675201341
C  C140  1  0.31130000  0.14780000  0.37540000  1.0 -0.1198971718
C  C141  1  0.31790000  0.13460000  0.41730000  1.0 0.1623741496
C  C142  1  0.33150000  0.09380000  0.43010000  1.0 -0.0990483297
C  C143  1  0.34090000  0.08090000  0.46750000  1.0 0.1818324835
C  C144  1  0.36300000  0.04200000  0.48010000  1.0 -0.1890779055
C  C145  1  0.52150000  0.59720000  0.32357000  1.0 0.2157616556
C  C146  1  0.56030000  0.62860000  0.32270000  1.0 -0.1675201341
C  C147  1  0.59550000  0.60360000  0.32310000  1.0 -0.1890779055
C  C148  1  0.58380000  0.55700000  0.32493000  1.0 0.1717731212
C  C149  1  0.61070000  0.52250000  0.32457000  1.0 -0.0990483297
C  C150  1  0.65962000  0.53201000  0.32576000  1.0 0.0875487714
C  C151  1  0.68166000  0.52710000  0.36084000  1.0 -0.1637905792
C  C152  1  0.72667000  0.53530000  0.36301000  1.0 -0.0990483297
C  C153  1  0.74964000  0.54850000  0.33009000  1.0 -0.1096095713
C  C154  1  0.72760000  0.55337000  0.29500000  1.0 -0.0634726993
C  C155  1  0.68259000  0.54514000  0.29283000  1.0 -0.1507528988
C  C156  1  0.75280000  0.56710000  0.26080000  1.0 0.5841642232
C  C157  1  0.82310000  0.53120000  0.16630000  1.0 0.5198607841
C  C158  1  0.85110000  0.49370000  0.14770000  1.0 -0.0108323345
C  C159  1  0.89550000  0.48750000  0.15610000  1.0 -0.1198971718
C  C160  1  0.91930000  0.45530000  0.13650000  1.0 -0.0990483297
C  C161  1  0.89880000  0.42930000  0.10870000  1.0 -0.1300488649
C  C162  1  0.85440000  0.43550000  0.10035000  1.0 0.0875487714
C  C163  1  0.83050000  0.46770000  0.11988000  1.0 -0.1507528988
C  C164  1  0.79380000  0.65790000  0.17210000  1.0 0.5523483069
C  C165  1  0.79660000  0.70030000  0.14989000  1.0 -0.0157708227
C  C166  1  0.83280000  0.72750000  0.15640000  1.0 -0.1096095713
C  C167  1  0.83800000  0.76590000  0.13490000  1.0 -0.0990483297
C  C168  1  0.80710000  0.77710000  0.10680000  1.0 -0.1407032385
C  C169  1  0.77090000  0.74990000  0.10029000  1.0 0.0875487714
C  C170  1  0.76568000  0.71150000  0.12183000  1.0 -0.1407032385
C  C171  1  0.79140000  0.73710000  0.01720000  1.0 -0.1407032385
C  C172  1  0.74800000  0.75280000  0.03270000  1.0 0.1623741496
C  C173  1  0.73710000  0.76200000  0.07040000  1.0 -0.0990483297
C  C174  1  0.69770000  0.78100000  0.08210000  1.0 0.2114292686
C  C175  1  0.68610000  0.79360000  0.12370000  1.0 -0.1675201341
C  C176  1  0.64780000  0.81130000  0.12460000  1.0 -0.1198971718
C  C177  1  0.63460000  0.81790000  0.08270000  1.0 0.1623741496
C  C178  1  0.59380000  0.83150000  0.06990000  1.0 -0.0990483297
C  C179  1  0.58090000  0.84090000  0.03250000  1.0 0.1818324835
C  C180  1  0.54200000  0.86300000  0.01990000  1.0 -0.1890779055
C  C181  1  0.47850000  0.40280000  0.32357000  1.0 0.2157616556
C  C182  1  0.43970000  0.37140000  0.32270000  1.0 -0.1675201341
C  C183  1  0.40450000  0.39640000  0.32310000  1.0 -0.1890779055
C  C184  1  0.41620000  0.44300000  0.32493000  1.0 0.1717731212
C  C185  1  0.38930000  0.47750000  0.32457000  1.0 -0.0990483297
C  C186  1  0.34038000  0.46799000  0.32576000  1.0 0.0875487714
C  C187  1  0.31834000  0.47290000  0.36084000  1.0 -0.1637905792
C  C188  1  0.27333000  0.46470000  0.36301000  1.0 -0.0990483297
C  C189  1  0.25036000  0.45150000  0.33009000  1.0 -0.1096095713
C  C190  1  0.27240000  0.44663000  0.29500000  1.0 -0.0634726993
C  C191  1  0.31741000  0.45486000  0.29283000  1.0 -0.1507528988
C  C192  1  0.24720000  0.43290000  0.26080000  1.0 0.5841642232
C  C193  1  0.17690000  0.46880000  0.16630000  1.0 0.5198607841
C  C194  1  0.14890000  0.50630000  0.14770000  1.0 -0.0108323345
C  C195  1  0.10450000  0.51250000  0.15610000  1.0 -0.1198971718
C  C196  1  0.08070000  0.54470000  0.13650000  1.0 -0.0990483297
C  C197  1  0.10120000  0.57070000  0.10870000  1.0 -0.1300488649
C  C198  1  0.14560000  0.56450000  0.10035000  1.0 0.0875487714
C  C199  1  0.16950000  0.53230000  0.11988000  1.0 -0.1507528988
C  C200  1  0.20620000  0.34210000  0.17210000  1.0 0.5523483069
C  C201  1  0.20340000  0.29970000  0.14989000  1.0 -0.0157708227
C  C202  1  0.16720000  0.27250000  0.15640000  1.0 -0.1096095713
C  C203  1  0.16200000  0.23410000  0.13490000  1.0 -0.0990483297
C  C204  1  0.19290000  0.22290000  0.10680000  1.0 -0.1407032385
C  C205  1  0.22910000  0.25010000  0.10029000  1.0 0.0875487714
C  C206  1  0.23432000  0.28850000  0.12183000  1.0 -0.1407032385
C  C207  1  0.20860000  0.26290000  0.01720000  1.0 -0.1407032385
C  C208  1  0.25200000  0.24720000  0.03270000  1.0 0.1623741496
C  C209  1  0.26290000  0.23800000  0.07040000  1.0 -0.0990483297
C  C210  1  0.30230000  0.21900000  0.08210000  1.0 0.2114292686
C  C211  1  0.31390000  0.20640000  0.12370000  1.0 -0.1675201341
C  C212  1  0.35220000  0.18870000  0.12460000  1.0 -0.1198971718
C  C213  1  0.36540000  0.18210000  0.08270000  1.0 0.1623741496
C  C214  1  0.40620000  0.16850000  0.06990000  1.0 -0.0990483297
C  C215  1  0.41910000  0.15910000  0.03250000  1.0 0.1818324835
C  C216  1  0.45800000  0.13700000  0.01990000  1.0 -0.1839652001
C  C217  1  0.59720000  0.47850000  0.32357000  1.0 0.2157616556
C  C218  1  0.62860000  0.43970000  0.32270000  1.0 -0.1675201341
C  C219  1  0.60360000  0.40450000  0.32310000  1.0 -0.1890779055
C  C220  1  0.55700000  0.41620000  0.32493000  1.0 0.1717731212
C  C221  1  0.52250000  0.38930000  0.32457000  1.0 -0.1096095713
C  C222  1  0.53201000  0.34038000  0.32576000  1.0 0.0875487714
C  C223  1  0.52710000  0.31834000  0.36084000  1.0 -0.1637905792
C  C224  1  0.53530000  0.27333000  0.36301000  1.0 -0.0990483297
C  C225  1  0.54850000  0.25036000  0.33009000  1.0 -0.1096095713
C  C226  1  0.55337000  0.27240000  0.29500000  1.0 -0.0634726993
C  C227  1  0.54514000  0.31741000  0.29283000  1.0 -0.1507528988
C  C228  1  0.56710000  0.24720000  0.26080000  1.0 0.5841642232
C  C229  1  0.53120000  0.17690000  0.16630000  1.0 0.5198607841
C  C230  1  0.49370000  0.14890000  0.14770000  1.0 -0.0108323345
C  C231  1  0.48750000  0.10450000  0.15610000  1.0 -0.1198971718
C  C232  1  0.45530000  0.08070000  0.13650000  1.0 -0.0990483297
C  C233  1  0.42930000  0.10120000  0.10870000  1.0 -0.1300488649
C  C234  1  0.43550000  0.14560000  0.10035000  1.0 0.0875487714
C  C235  1  0.46770000  0.16950000  0.11988000  1.0 -0.1507528988
C  C236  1  0.65790000  0.20620000  0.17210000  1.0 0.5523483069
C  C237  1  0.70030000  0.20340000  0.14989000  1.0 -0.0157708227
C  C238  1  0.72750000  0.16720000  0.15640000  1.0 -0.1096095713
C  C239  1  0.76590000  0.16200000  0.13490000  1.0 -0.0990483297
C  C240  1  0.77710000  0.19290000  0.10680000  1.0 -0.1407032385
C  C241  1  0.74990000  0.22910000  0.10029000  1.0 0.0875487714
C  C242  1  0.71150000  0.23432000  0.12183000  1.0 -0.1407032385
C  C243  1  0.73710000  0.20860000  0.01720000  1.0 -0.1407032385
C  C244  1  0.75280000  0.25200000  0.03270000  1.0 0.1623741496
C  C245  1  0.76200000  0.26290000  0.07040000  1.0 -0.0990483297
C  C246  1  0.78100000  0.30230000  0.08210000  1.0 0.2114292686
C  C247  1  0.79360000  0.31390000  0.12370000  1.0 -0.1675201341
C  C248  1  0.81130000  0.35220000  0.12460000  1.0 -0.1198971718
C  C249  1  0.81790000  0.36540000  0.08270000  1.0 0.1623741496
C  C250  1  0.83150000  0.40620000  0.06990000  1.0 -0.0990483297
C  C251  1  0.84090000  0.41910000  0.03250000  1.0 0.1818324835
C  C252  1  0.86300000  0.45800000  0.01990000  1.0 -0.1890779055
C  C253  1  0.40280000  0.52150000  0.32357000  1.0 0.2157616556
C  C254  1  0.37140000  0.56030000  0.32270000  1.0 -0.1675201341
C  C255  1  0.39640000  0.59550000  0.32310000  1.0 -0.1890779055
C  C256  1  0.44300000  0.58380000  0.32493000  1.0 0.1717731212
C  C257  1  0.47750000  0.61070000  0.32457000  1.0 -0.0990483297
C  C258  1  0.46799000  0.65962000  0.32576000  1.0 0.0875487714
C  C259  1  0.47290000  0.68166000  0.36084000  1.0 -0.1637905792
C  C260  1  0.46470000  0.72667000  0.36301000  1.0 -0.0990483297
C  C261  1  0.45150000  0.74964000  0.33009000  1.0 -0.1096095713
C  C262  1  0.44663000  0.72760000  0.29500000  1.0 -0.0634726993
C  C263  1  0.45486000  0.68259000  0.29283000  1.0 -0.1507528988
C  C264  1  0.43290000  0.75280000  0.26080000  1.0 0.5841642232
C  C265  1  0.46880000  0.82310000  0.16630000  1.0 0.5198607841
C  C266  1  0.50630000  0.85110000  0.14770000  1.0 -0.0108323345
C  C267  1  0.51250000  0.89550000  0.15610000  1.0 -0.1198971718
C  C268  1  0.54470000  0.91930000  0.13650000  1.0 -0.0990483297
C  C269  1  0.57070000  0.89880000  0.10870000  1.0 -0.1300488649
C  C270  1  0.56450000  0.85440000  0.10035000  1.0 0.0875487714
C  C271  1  0.53230000  0.83050000  0.11988000  1.0 -0.1507528988
C  C272  1  0.34210000  0.79380000  0.17210000  1.0 0.5523483069
C  C273  1  0.29970000  0.79660000  0.14989000  1.0 -0.0157708227
C  C274  1  0.27250000  0.83280000  0.15640000  1.0 -0.1096095713
C  C275  1  0.23410000  0.83800000  0.13490000  1.0 -0.0990483297
C  C276  1  0.22290000  0.80710000  0.10680000  1.0 -0.1407032385
C  C277  1  0.25010000  0.77090000  0.10029000  1.0 0.0875487714
C  C278  1  0.28850000  0.76568000  0.12183000  1.0 -0.1407032385
C  C279  1  0.26290000  0.79140000  0.01720000  1.0 -0.1407032385
C  C280  1  0.24720000  0.74800000  0.03270000  1.0 0.1623741496
C  C281  1  0.23800000  0.73710000  0.07040000  1.0 -0.0990483297
C  C282  1  0.21900000  0.69770000  0.08210000  1.0 0.2114292686
C  C283  1  0.20640000  0.68610000  0.12370000  1.0 -0.1637905792
C  C284  1  0.18870000  0.64780000  0.12460000  1.0 -0.1198971718
C  C285  1  0.18210000  0.63460000  0.08270000  1.0 0.1623741496
C  C286  1  0.16850000  0.59380000  0.06990000  1.0 -0.0990483297
C  C287  1  0.15910000  0.58090000  0.03250000  1.0 0.1818324835
C  C288  1  0.13700000  0.54200000  0.01990000  1.0 -0.1839652001
C  C289  1  0.02150000  0.90280000  0.82357000  1.0 0.2157616556
C  C290  1  0.06030000  0.87140000  0.82270000  1.0 -0.1675201341
C  C291  1  0.09550000  0.89640000  0.82310000  1.0 -0.1890779055
C  C292  1  0.08380000  0.94300000  0.82493000  1.0 0.1717731212
C  C293  1  0.11070000  0.97750000  0.82457000  1.0 -0.0990483297
C  C294  1  0.15962000  0.96799000  0.82576000  1.0 0.0875487714
C  C295  1  0.18166000  0.97290000  0.86084000  1.0 -0.1637905792
C  C296  1  0.22667000  0.96470000  0.86301000  1.0 -0.0990483297
C  C297  1  0.24964000  0.95150000  0.83009000  1.0 -0.1096095713
C  C298  1  0.22760000  0.94663000  0.79500000  1.0 -0.0634726993
C  C299  1  0.18259000  0.95486000  0.79283000  1.0 -0.1507528988
C  C300  1  0.25280000  0.93290000  0.76080000  1.0 0.5841642232
C  C301  1  0.32310000  0.96880000  0.66630000  1.0 0.5198607841
C  C302  1  0.35110000  0.00630000  0.64770000  1.0 -0.0108323345
C  C303  1  0.39550000  0.01250000  0.65610000  1.0 -0.1198971718
C  C304  1  0.41930000  0.04470000  0.63650000  1.0 -0.0990483297
C  C305  1  0.39880000  0.07070000  0.60870000  1.0 -0.1300488649
C  C306  1  0.35440000  0.06450000  0.60035000  1.0 0.0875487714
C  C307  1  0.33050000  0.03230000  0.61988000  1.0 -0.1507528988
C  C308  1  0.29380000  0.84210000  0.67210000  1.0 0.5523483069
C  C309  1  0.29660000  0.79970000  0.64989000  1.0 -0.0157708227
C  C310  1  0.33280000  0.77250000  0.65640000  1.0 -0.1096095713
C  C311  1  0.33800000  0.73410000  0.63490000  1.0 -0.0990483297
C  C312  1  0.30710000  0.72290000  0.60680000  1.0 -0.1407032385
C  C313  1  0.27090000  0.75010000  0.60029000  1.0 0.0875487714
C  C314  1  0.26568000  0.78850000  0.62183000  1.0 -0.1407032385
C  C315  1  0.29140000  0.76290000  0.51720000  1.0 -0.1407032385
C  C316  1  0.24800000  0.74720000  0.53270000  1.0 0.1623741496
C  C317  1  0.23710000  0.73800000  0.57040000  1.0 -0.0990483297
C  C318  1  0.19770000  0.71900000  0.58210000  1.0 0.2114292686
C  C319  1  0.18610000  0.70640000  0.62370000  1.0 -0.1675201341
C  C320  1  0.14780000  0.68870000  0.62460000  1.0 -0.1198971718
C  C321  1  0.13460000  0.68210000  0.58270000  1.0 0.1623741496
C  C322  1  0.09380000  0.66850000  0.56990000  1.0 -0.0990483297
C  C323  1  0.08090000  0.65910000  0.53250000  1.0 0.1818324835
C  C324  1  0.04200000  0.63700000  0.51990000  1.0 -0.1890779055
C  C325  1  0.97850000  0.09720000  0.82357000  1.0 0.2157616556
C  C326  1  0.93970000  0.12860000  0.82270000  1.0 -0.1675201341
C  C327  1  0.90450000  0.10360000  0.82310000  1.0 -0.1890779055
C  C328  1  0.91620000  0.05700000  0.82493000  1.0 0.1717731212
C  C329  1  0.88930000  0.02250000  0.82457000  1.0 -0.0990483297
C  C330  1  0.84038000  0.03201000  0.82576000  1.0 0.0875487714
C  C331  1  0.81834000  0.02710000  0.86084000  1.0 -0.1637905792
C  C332  1  0.77333000  0.03530000  0.86301000  1.0 -0.0990483297
C  C333  1  0.75036000  0.04850000  0.83009000  1.0 -0.1096095713
C  C334  1  0.77240000  0.05337000  0.79500000  1.0 -0.0634726993
C  C335  1  0.81741000  0.04514000  0.79283000  1.0 -0.1507528988
C  C336  1  0.74720000  0.06710000  0.76080000  1.0 0.5841642232
C  C337  1  0.67690000  0.03120000  0.66630000  1.0 0.5198607841
C  C338  1  0.64890000  0.99370000  0.64770000  1.0 -0.0108323345
C  C339  1  0.60450000  0.98750000  0.65610000  1.0 -0.1198971718
C  C340  1  0.58070000  0.95530000  0.63650000  1.0 -0.0990483297
C  C341  1  0.60120000  0.92930000  0.60870000  1.0 -0.1300488649
C  C342  1  0.64560000  0.93550000  0.60035000  1.0 0.0875487714
C  C343  1  0.66950000  0.96770000  0.61988000  1.0 -0.1507528988
C  C344  1  0.70620000  0.15790000  0.67210000  1.0 0.5523483069
C  C345  1  0.70340000  0.20030000  0.64989000  1.0 -0.0157708227
C  C346  1  0.66720000  0.22750000  0.65640000  1.0 -0.1096095713
C  C347  1  0.66200000  0.26590000  0.63490000  1.0 -0.0990483297
C  C348  1  0.69290000  0.27710000  0.60680000  1.0 -0.1407032385
C  C349  1  0.72910000  0.24990000  0.60029000  1.0 0.0875487714
C  C350  1  0.73432000  0.21150000  0.62183000  1.0 -0.1507528988
C  C351  1  0.70860000  0.23710000  0.51720000  1.0 -0.1407032385
C  C352  1  0.75200000  0.25280000  0.53270000  1.0 0.1623741496
C  C353  1  0.76290000  0.26200000  0.57040000  1.0 -0.0990483297
C  C354  1  0.80230000  0.28100000  0.58210000  1.0 0.2114292686
C  C355  1  0.81390000  0.29360000  0.62370000  1.0 -0.1675201341
C  C356  1  0.85220000  0.31130000  0.62460000  1.0 -0.1198971718
C  C357  1  0.86540000  0.31790000  0.58270000  1.0 0.1623741496
C  C358  1  0.90620000  0.33150000  0.56990000  1.0 -0.0990483297
C  C359  1  0.91910000  0.34090000  0.53250000  1.0 0.1818324835
C  C360  1  0.95800000  0.36300000  0.51990000  1.0 -0.1890779055
C  C361  1  0.09720000  0.02150000  0.82357000  1.0 0.2157616556
C  C362  1  0.12860000  0.06030000  0.82270000  1.0 -0.1675201341
C  C363  1  0.10360000  0.09550000  0.82310000  1.0 -0.1890779055
C  C364  1  0.05700000  0.08380000  0.82493000  1.0 0.1717731212
C  C365  1  0.02250000  0.11070000  0.82457000  1.0 -0.1096095713
C  C366  1  0.03201000  0.15962000  0.82576000  1.0 0.0875487714
C  C367  1  0.02710000  0.18166000  0.86084000  1.0 -0.1637905792
C  C368  1  0.03530000  0.22667000  0.86301000  1.0 -0.0990483297
C  C369  1  0.04850000  0.24964000  0.83009000  1.0 -0.1096095713
C  C370  1  0.05337000  0.22760000  0.79500000  1.0 -0.0634726993
C  C371  1  0.04514000  0.18259000  0.79283000  1.0 -0.1507528988
C  C372  1  0.06710000  0.25280000  0.76080000  1.0 0.5841642232
C  C373  1  0.03120000  0.32310000  0.66630000  1.0 0.5198607841
C  C374  1  0.99370000  0.35110000  0.64770000  1.0 -0.0108323345
C  C375  1  0.98750000  0.39550000  0.65610000  1.0 -0.1198971718
C  C376  1  0.95530000  0.41930000  0.63650000  1.0 -0.0990483297
C  C377  1  0.92930000  0.39880000  0.60870000  1.0 -0.1300488649
C  C378  1  0.93550000  0.35440000  0.60035000  1.0 0.0875487714
C  C379  1  0.96770000  0.33050000  0.61988000  1.0 -0.1507528988
C  C380  1  0.15790000  0.29380000  0.67210000  1.0 0.5523483069
C  C381  1  0.20030000  0.29660000  0.64989000  1.0 -0.0157708227
C  C382  1  0.22750000  0.33280000  0.65640000  1.0 -0.1096095713
C  C383  1  0.26590000  0.33800000  0.63490000  1.0 -0.0990483297
C  C384  1  0.27710000  0.30710000  0.60680000  1.0 -0.1407032385
C  C385  1  0.24990000  0.27090000  0.60029000  1.0 0.0875487714
C  C386  1  0.21150000  0.26568000  0.62183000  1.0 -0.1507528988
C  C387  1  0.23710000  0.29140000  0.51720000  1.0 -0.1407032385
C  C388  1  0.25280000  0.24800000  0.53270000  1.0 0.1623741496
C  C389  1  0.26200000  0.23710000  0.57040000  1.0 -0.0990483297
C  C390  1  0.28100000  0.19770000  0.58210000  1.0 0.2114292686
C  C391  1  0.29360000  0.18610000  0.62370000  1.0 -0.1675201341
C  C392  1  0.31130000  0.14780000  0.62460000  1.0 -0.1198971718
C  C393  1  0.31790000  0.13460000  0.58270000  1.0 0.1623741496
C  C394  1  0.33150000  0.09380000  0.56990000  1.0 -0.0990483297
C  C395  1  0.34090000  0.08090000  0.53250000  1.0 0.1818324835
C  C396  1  0.36300000  0.04200000  0.51990000  1.0 -0.1890779055
C  C397  1  0.90280000  0.97850000  0.82357000  1.0 0.2157616556
C  C398  1  0.87140000  0.93970000  0.82270000  1.0 -0.1675201341
C  C399  1  0.89640000  0.90450000  0.82310000  1.0 -0.1890779055
C  C400  1  0.94300000  0.91620000  0.82493000  1.0 0.1717731212
C  C401  1  0.97750000  0.88930000  0.82457000  1.0 -0.0990483297
C  C402  1  0.96799000  0.84038000  0.82576000  1.0 0.0875487714
C  C403  1  0.97290000  0.81834000  0.86084000  1.0 -0.1637905792
C  C404  1  0.96470000  0.77333000  0.86301000  1.0 -0.0990483297
C  C405  1  0.95150000  0.75036000  0.83009000  1.0 -0.1096095713
C  C406  1  0.94663000  0.77240000  0.79500000  1.0 -0.0634726993
C  C407  1  0.95486000  0.81741000  0.79283000  1.0 -0.1507528988
C  C408  1  0.93290000  0.74720000  0.76080000  1.0 0.5841642232
C  C409  1  0.96880000  0.67690000  0.66630000  1.0 0.5198607841
C  C410  1  0.00630000  0.64890000  0.64770000  1.0 -0.0108323345
C  C411  1  0.01250000  0.60450000  0.65610000  1.0 -0.1198971718
C  C412  1  0.04470000  0.58070000  0.63650000  1.0 -0.0990483297
C  C413  1  0.07070000  0.60120000  0.60870000  1.0 -0.1300488649
C  C414  1  0.06450000  0.64560000  0.60035000  1.0 0.0875487714
C  C415  1  0.03230000  0.66950000  0.61988000  1.0 -0.1507528988
C  C416  1  0.84210000  0.70620000  0.67210000  1.0 0.5523483069
C  C417  1  0.79970000  0.70340000  0.64989000  1.0 -0.0157708227
C  C418  1  0.77250000  0.66720000  0.65640000  1.0 -0.1096095713
C  C419  1  0.73410000  0.66200000  0.63490000  1.0 -0.0990483297
C  C420  1  0.72290000  0.69290000  0.60680000  1.0 -0.1407032385
C  C421  1  0.75010000  0.72910000  0.60029000  1.0 0.0875487714
C  C422  1  0.78850000  0.73432000  0.62183000  1.0 -0.1407032385
C  C423  1  0.76290000  0.70860000  0.51720000  1.0 -0.1407032385
C  C424  1  0.74720000  0.75200000  0.53270000  1.0 0.1623741496
C  C425  1  0.73800000  0.76290000  0.57040000  1.0 -0.0990483297
C  C426  1  0.71900000  0.80230000  0.58210000  1.0 0.2114292686
C  C427  1  0.70640000  0.81390000  0.62370000  1.0 -0.1675201341
C  C428  1  0.68870000  0.85220000  0.62460000  1.0 -0.1198971718
C  C429  1  0.68210000  0.86540000  0.58270000  1.0 0.1623741496
C  C430  1  0.66850000  0.90620000  0.56990000  1.0 -0.0990483297
C  C431  1  0.65910000  0.91910000  0.53250000  1.0 0.1818324835
C  C432  1  0.63700000  0.95800000  0.51990000  1.0 -0.1890779055
C  C433  1  0.47850000  0.40280000  0.67643000  1.0 0.2157616556
C  C434  1  0.43970000  0.37140000  0.67730000  1.0 -0.1675201341
C  C435  1  0.40450000  0.39640000  0.67690000  1.0 -0.1890779055
C  C436  1  0.41620000  0.44300000  0.67507000  1.0 0.1717731212
C  C437  1  0.38930000  0.47750000  0.67543000  1.0 -0.0990483297
C  C438  1  0.34038000  0.46799000  0.67424000  1.0 0.0875487714
C  C439  1  0.31834000  0.47290000  0.63916000  1.0 -0.1637905792
C  C440  1  0.27333000  0.46470000  0.63699000  1.0 -0.0990483297
C  C441  1  0.25036000  0.45150000  0.66991000  1.0 -0.1096095713
C  C442  1  0.27240000  0.44663000  0.70500000  1.0 -0.0634726993
C  C443  1  0.31741000  0.45486000  0.70717000  1.0 -0.1507528988
C  C444  1  0.24720000  0.43290000  0.73920000  1.0 0.5841642232
C  C445  1  0.17690000  0.46880000  0.83370000  1.0 0.5198607841
C  C446  1  0.14890000  0.50630000  0.85230000  1.0 -0.0108323345
C  C447  1  0.10450000  0.51250000  0.84390000  1.0 -0.1198971718
C  C448  1  0.08070000  0.54470000  0.86350000  1.0 -0.0990483297
C  C449  1  0.10120000  0.57070000  0.89130000  1.0 -0.1300488649
C  C450  1  0.14560000  0.56450000  0.89965000  1.0 0.0875487714
C  C451  1  0.16950000  0.53230000  0.88012000  1.0 -0.1507528988
C  C452  1  0.20620000  0.34210000  0.82790000  1.0 0.5523483069
C  C453  1  0.20340000  0.29970000  0.85011000  1.0 -0.0157708227
C  C454  1  0.16720000  0.27250000  0.84360000  1.0 -0.1096095713
C  C455  1  0.16200000  0.23410000  0.86510000  1.0 -0.0990483297
C  C456  1  0.19290000  0.22290000  0.89320000  1.0 -0.1407032385
C  C457  1  0.22910000  0.25010000  0.89971000  1.0 0.0875487714
C  C458  1  0.23432000  0.28850000  0.87817000  1.0 -0.1407032385
C  C459  1  0.20860000  0.26290000  0.98280000  1.0 -0.1407032385
C  C460  1  0.25200000  0.24720000  0.96730000  1.0 0.1623741496
C  C461  1  0.26290000  0.23800000  0.92960000  1.0 -0.0990483297
C  C462  1  0.30230000  0.21900000  0.91790000  1.0 0.2114292686
C  C463  1  0.31390000  0.20640000  0.87630000  1.0 -0.1675201341
C  C464  1  0.35220000  0.18870000  0.87540000  1.0 -0.1198971718
C  C465  1  0.36540000  0.18210000  0.91730000  1.0 0.1623741496
C  C466  1  0.40620000  0.16850000  0.93010000  1.0 -0.0990483297
C  C467  1  0.41910000  0.15910000  0.96750000  1.0 0.1818324835
C  C468  1  0.45800000  0.13700000  0.98010000  1.0 -0.1839652001
C  C469  1  0.52150000  0.59720000  0.67643000  1.0 0.2157616556
C  C470  1  0.56030000  0.62860000  0.67730000  1.0 -0.1675201341
C  C471  1  0.59550000  0.60360000  0.67690000  1.0 -0.1890779055
C  C472  1  0.58380000  0.55700000  0.67507000  1.0 0.1717731212
C  C473  1  0.61070000  0.52250000  0.67543000  1.0 -0.0990483297
C  C474  1  0.65962000  0.53201000  0.67424000  1.0 0.0875487714
C  C475  1  0.68166000  0.52710000  0.63916000  1.0 -0.1637905792
C  C476  1  0.72667000  0.53530000  0.63699000  1.0 -0.0990483297
C  C477  1  0.74964000  0.54850000  0.66991000  1.0 -0.1096095713
C  C478  1  0.72760000  0.55337000  0.70500000  1.0 -0.0634726993
C  C479  1  0.68259000  0.54514000  0.70717000  1.0 -0.1507528988
C  C480  1  0.75280000  0.56710000  0.73920000  1.0 0.5841642232
C  C481  1  0.82310000  0.53120000  0.83370000  1.0 0.5198607841
C  C482  1  0.85110000  0.49370000  0.85230000  1.0 -0.0108323345
C  C483  1  0.89550000  0.48750000  0.84390000  1.0 -0.1198971718
C  C484  1  0.91930000  0.45530000  0.86350000  1.0 -0.0990483297
C  C485  1  0.89880000  0.42930000  0.89130000  1.0 -0.1300488649
C  C486  1  0.85440000  0.43550000  0.89965000  1.0 0.0875487714
C  C487  1  0.83050000  0.46770000  0.88012000  1.0 -0.1507528988
C  C488  1  0.79380000  0.65790000  0.82790000  1.0 0.5523483069
C  C489  1  0.79660000  0.70030000  0.85011000  1.0 -0.0157708227
C  C490  1  0.83280000  0.72750000  0.84360000  1.0 -0.1096095713
C  C491  1  0.83800000  0.76590000  0.86510000  1.0 -0.0990483297
C  C492  1  0.80710000  0.77710000  0.89320000  1.0 -0.1407032385
C  C493  1  0.77090000  0.74990000  0.89971000  1.0 0.0875487714
C  C494  1  0.76568000  0.71150000  0.87817000  1.0 -0.1407032385
C  C495  1  0.79140000  0.73710000  0.98280000  1.0 -0.1407032385
C  C496  1  0.74800000  0.75280000  0.96730000  1.0 0.1623741496
C  C497  1  0.73710000  0.76200000  0.92960000  1.0 -0.0990483297
C  C498  1  0.69770000  0.78100000  0.91790000  1.0 0.2114292686
C  C499  1  0.68610000  0.79360000  0.87630000  1.0 -0.1675201341
C  C500  1  0.64780000  0.81130000  0.87540000  1.0 -0.1198971718
C  C501  1  0.63460000  0.81790000  0.91730000  1.0 0.1623741496
C  C502  1  0.59380000  0.83150000  0.93010000  1.0 -0.0990483297
C  C503  1  0.58090000  0.84090000  0.96750000  1.0 0.1818324835
C  C504  1  0.54200000  0.86300000  0.98010000  1.0 -0.1890779055
C  C505  1  0.40280000  0.52150000  0.67643000  1.0 0.2157616556
C  C506  1  0.37140000  0.56030000  0.67730000  1.0 -0.1675201341
C  C507  1  0.39640000  0.59550000  0.67690000  1.0 -0.1890779055
C  C508  1  0.44300000  0.58380000  0.67507000  1.0 0.1717731212
C  C509  1  0.47750000  0.61070000  0.67543000  1.0 -0.0990483297
C  C510  1  0.46799000  0.65962000  0.67424000  1.0 0.0875487714
C  C511  1  0.47290000  0.68166000  0.63916000  1.0 -0.1637905792
C  C512  1  0.46470000  0.72667000  0.63699000  1.0 -0.0990483297
C  C513  1  0.45150000  0.74964000  0.66991000  1.0 -0.1096095713
C  C514  1  0.44663000  0.72760000  0.70500000  1.0 -0.0634726993
C  C515  1  0.45486000  0.68259000  0.70717000  1.0 -0.1507528988
C  C516  1  0.43290000  0.75280000  0.73920000  1.0 0.5841642232
C  C517  1  0.46880000  0.82310000  0.83370000  1.0 0.5198607841
C  C518  1  0.50630000  0.85110000  0.85230000  1.0 -0.0157708227
C  C519  1  0.51250000  0.89550000  0.84390000  1.0 -0.1198971718
C  C520  1  0.54470000  0.91930000  0.86350000  1.0 -0.0990483297
C  C521  1  0.57070000  0.89880000  0.89130000  1.0 -0.1300488649
C  C522  1  0.56450000  0.85440000  0.89965000  1.0 0.0875487714
C  C523  1  0.53230000  0.83050000  0.88012000  1.0 -0.1507528988
C  C524  1  0.34210000  0.79380000  0.82790000  1.0 0.5523483069
C  C525  1  0.29970000  0.79660000  0.85011000  1.0 -0.0157708227
C  C526  1  0.27250000  0.83280000  0.84360000  1.0 -0.1096095713
C  C527  1  0.23410000  0.83800000  0.86510000  1.0 -0.0990483297
C  C528  1  0.22290000  0.80710000  0.89320000  1.0 -0.1407032385
C  C529  1  0.25010000  0.77090000  0.89971000  1.0 0.0875487714
C  C530  1  0.28850000  0.76568000  0.87817000  1.0 -0.1407032385
C  C531  1  0.26290000  0.79140000  0.98280000  1.0 -0.1407032385
C  C532  1  0.24720000  0.74800000  0.96730000  1.0 0.1623741496
C  C533  1  0.23800000  0.73710000  0.92960000  1.0 -0.0990483297
C  C534  1  0.21900000  0.69770000  0.91790000  1.0 0.2114292686
C  C535  1  0.20640000  0.68610000  0.87630000  1.0 -0.1675201341
C  C536  1  0.18870000  0.64780000  0.87540000  1.0 -0.1198971718
C  C537  1  0.18210000  0.63460000  0.91730000  1.0 0.1623741496
C  C538  1  0.16850000  0.59380000  0.93010000  1.0 -0.0990483297
C  C539  1  0.15910000  0.58090000  0.96750000  1.0 0.1818324835
C  C540  1  0.13700000  0.54200000  0.98010000  1.0 -0.1839652001
C  C541  1  0.59720000  0.47850000  0.67643000  1.0 0.2157616556
C  C542  1  0.62860000  0.43970000  0.67730000  1.0 -0.1675201341
C  C543  1  0.60360000  0.40450000  0.67690000  1.0 -0.1890779055
C  C544  1  0.55700000  0.41620000  0.67507000  1.0 0.1717731212
C  C545  1  0.52250000  0.38930000  0.67543000  1.0 -0.1096095713
C  C546  1  0.53201000  0.34038000  0.67424000  1.0 0.0875487714
C  C547  1  0.52710000  0.31834000  0.63916000  1.0 -0.1637905792
C  C548  1  0.53530000  0.27333000  0.63699000  1.0 -0.0990483297
C  C549  1  0.54850000  0.25036000  0.66991000  1.0 -0.1096095713
C  C550  1  0.55337000  0.27240000  0.70500000  1.0 -0.0634726993
C  C551  1  0.54514000  0.31741000  0.70717000  1.0 -0.1507528988
C  C552  1  0.56710000  0.24720000  0.73920000  1.0 0.5841642232
C  C553  1  0.53120000  0.17690000  0.83370000  1.0 0.5198607841
C  C554  1  0.49370000  0.14890000  0.85230000  1.0 -0.0108323345
C  C555  1  0.48750000  0.10450000  0.84390000  1.0 -0.1198971718
C  C556  1  0.45530000  0.08070000  0.86350000  1.0 -0.0990483297
C  C557  1  0.42930000  0.10120000  0.89130000  1.0 -0.1300488649
C  C558  1  0.43550000  0.14560000  0.89965000  1.0 0.0875487714
C  C559  1  0.46770000  0.16950000  0.88012000  1.0 -0.1507528988
C  C560  1  0.65790000  0.20620000  0.82790000  1.0 0.5523483069
C  C561  1  0.70030000  0.20340000  0.85011000  1.0 -0.0157708227
C  C562  1  0.72750000  0.16720000  0.84360000  1.0 -0.1096095713
C  C563  1  0.76590000  0.16200000  0.86510000  1.0 -0.0990483297
C  C564  1  0.77710000  0.19290000  0.89320000  1.0 -0.1407032385
C  C565  1  0.74990000  0.22910000  0.89971000  1.0 0.0875487714
C  C566  1  0.71150000  0.23432000  0.87817000  1.0 -0.1407032385
C  C567  1  0.73710000  0.20860000  0.98280000  1.0 -0.1407032385
C  C568  1  0.75280000  0.25200000  0.96730000  1.0 0.1623741496
C  C569  1  0.76200000  0.26290000  0.92960000  1.0 -0.0990483297
C  C570  1  0.78100000  0.30230000  0.91790000  1.0 0.2114292686
C  C571  1  0.79360000  0.31390000  0.87630000  1.0 -0.1675201341
C  C572  1  0.81130000  0.35220000  0.87540000  1.0 -0.1198971718
C  C573  1  0.81790000  0.36540000  0.91730000  1.0 0.1623741496
C  C574  1  0.83150000  0.40620000  0.93010000  1.0 -0.0990483297
C  C575  1  0.84090000  0.41910000  0.96750000  1.0 0.1818324835
C  C576  1  0.86300000  0.45800000  0.98010000  1.0 -0.1890779055
C  C577  1  0.00000000  0.00000000  0.02130000  1.0 -0.0108323345
C  C578  1  0.50000000  0.50000000  0.47870000  1.0 -0.0041889916
C  C579  1  0.00000000  0.00000000  0.97870000  1.0 -0.0108323345
C  C580  1  0.50000000  0.50000000  0.52130000  1.0 -0.0041889916
C  C581  1  0.79900000  0.04220000  0.41690000  0.45 0.1027104292
C  C582  1  0.79960000  0.04390000  0.45720000  0.45 -0.1890779055
C  C583  1  0.76340000  0.06050000  0.47723000  0.45 0.1097138611
C  C584  1  0.72670000  0.07530000  0.45700000  0.45 -0.2020371323
C  C585  1  0.72610000  0.07360000  0.41670000  0.45 0.059682406
C  C586  1  0.20100000  0.95780000  0.41690000  0.45 0.1027104292
C  C587  1  0.20040000  0.95610000  0.45720000  0.45 -0.1890779055
C  C588  1  0.23660000  0.93950000  0.47723000  0.45 0.1027104292
C  C589  1  0.27330000  0.92470000  0.45700000  0.45 -0.2020371323
C  C590  1  0.27390000  0.92640000  0.41670000  0.45 0.059682406
C  C591  1  0.95780000  0.79900000  0.41690000  0.45 0.1027104292
C  C592  1  0.95610000  0.79960000  0.45720000  0.45 -0.1890779055
C  C593  1  0.93950000  0.76340000  0.47723000  0.45 0.1097138611
C  C594  1  0.92470000  0.72670000  0.45700000  0.45 -0.2020371323
C  C595  1  0.92640000  0.72610000  0.41670000  0.45 0.059682406
C  C596  1  0.04220000  0.20100000  0.41690000  0.45 0.1027104292
C  C597  1  0.04390000  0.20040000  0.45720000  0.45 -0.1890779055
C  C598  1  0.06050000  0.23660000  0.47723000  0.45 0.1097138611
C  C599  1  0.07530000  0.27330000  0.45700000  0.45 -0.2020371323
C  C600  1  0.07360000  0.27390000  0.41670000  0.45 0.059682406
C  C601  1  0.70100000  0.54220000  0.08310000  0.45 0.1027104292
C  C602  1  0.70040000  0.54390000  0.04280000  0.45 -0.1890779055
C  C603  1  0.73660000  0.56050000  0.02277000  0.45 0.1027104292
C  C604  1  0.77330000  0.57530000  0.04300000  0.45 -0.2020371323
C  C605  1  0.77390000  0.57360000  0.08330000  0.45 0.059682406
C  C606  1  0.29900000  0.45780000  0.08310000  0.45 0.1027104292
C  C607  1  0.29960000  0.45610000  0.04280000  0.45 -0.1890779055
C  C608  1  0.26340000  0.43950000  0.02277000  0.45 0.1027104292
C  C609  1  0.22670000  0.42470000  0.04300000  0.45 -0.2020371323
C  C610  1  0.22610000  0.42640000  0.08330000  0.45 0.059682406
C  C611  1  0.54220000  0.29900000  0.08310000  0.45 0.1027104292
C  C612  1  0.54390000  0.29960000  0.04280000  0.45 -0.1839652001
C  C613  1  0.56050000  0.26340000  0.02277000  0.45 0.1097138611
C  C614  1  0.57530000  0.22670000  0.04300000  0.45 -0.2020371323
C  C615  1  0.57360000  0.22610000  0.08330000  0.45 0.059682406
C  C616  1  0.45780000  0.70100000  0.08310000  0.45 0.1027104292
C  C617  1  0.45610000  0.70040000  0.04280000  0.45 -0.1890779055
C  C618  1  0.43950000  0.73660000  0.02277000  0.45 0.1027104292
C  C619  1  0.42470000  0.77330000  0.04300000  0.45 -0.2020371323
C  C620  1  0.42640000  0.77390000  0.08330000  0.45 0.059682406
C  C621  1  0.20100000  0.95780000  0.58310000  0.45 0.1027104292
C  C622  1  0.20040000  0.95610000  0.54280000  0.45 -0.1890779055
C  C623  1  0.23660000  0.93950000  0.52277000  0.45 0.1027104292
C  C624  1  0.27330000  0.92470000  0.54300000  0.45 -0.2020371323
C  C625  1  0.27390000  0.92640000  0.58330000  0.45 0.059682406
C  C626  1  0.79900000  0.04220000  0.58310000  0.45 0.1027104292
C  C627  1  0.79960000  0.04390000  0.54280000  0.45 -0.1890779055
C  C628  1  0.76340000  0.06050000  0.52277000  0.45 0.1097138611
C  C629  1  0.72670000  0.07530000  0.54300000  0.45 -0.2020371323
C  C630  1  0.72610000  0.07360000  0.58330000  0.45 0.059682406
C  C631  1  0.04220000  0.20100000  0.58310000  0.45 0.1027104292
C  C632  1  0.04390000  0.20040000  0.54280000  0.45 -0.1890779055
C  C633  1  0.06050000  0.23660000  0.52277000  0.45 0.1027104292
C  C634  1  0.07530000  0.27330000  0.54300000  0.45 -0.2020371323
C  C635  1  0.07360000  0.27390000  0.58330000  0.45 0.059682406
C  C636  1  0.95780000  0.79900000  0.58310000  0.45 0.1027104292
C  C637  1  0.95610000  0.79960000  0.54280000  0.45 -0.1890779055
C  C638  1  0.93950000  0.76340000  0.52277000  0.45 0.1097138611
C  C639  1  0.92470000  0.72670000  0.54300000  0.45 -0.2020371323
C  C640  1  0.92640000  0.72610000  0.58330000  0.45 0.059682406
C  C641  1  0.29900000  0.45780000  0.91690000  0.45 0.1027104292
C  C642  1  0.29960000  0.45610000  0.95720000  0.45 -0.1890779055
C  C643  1  0.26340000  0.43950000  0.97723000  0.45 0.1097138611
C  C644  1  0.22670000  0.42470000  0.95700000  0.45 -0.2020371323
C  C645  1  0.22610000  0.42640000  0.91670000  0.45 0.059682406
C  C646  1  0.70100000  0.54220000  0.91690000  0.45 0.1027104292
C  C647  1  0.70040000  0.54390000  0.95720000  0.45 -0.1890779055
C  C648  1  0.73660000  0.56050000  0.97723000  0.45 0.1097138611
C  C649  1  0.77330000  0.57530000  0.95700000  0.45 -0.2020371323
C  C650  1  0.77390000  0.57360000  0.91670000  0.45 0.059682406
C  C651  1  0.45780000  0.70100000  0.91690000  0.45 0.1027104292
C  C652  1  0.45610000  0.70040000  0.95720000  0.45 -0.1890779055
C  C653  1  0.43950000  0.73660000  0.97723000  0.45 0.1097138611
C  C654  1  0.42470000  0.77330000  0.95700000  0.45 -0.2020371323
C  C655  1  0.42640000  0.77390000  0.91670000  0.45 0.059682406
C  C656  1  0.54220000  0.29900000  0.91690000  0.45 0.1027104292
C  C657  1  0.54390000  0.29960000  0.95720000  0.45 -0.1839652001
C  C658  1  0.56050000  0.26340000  0.97723000  0.45 0.1097138611
C  C659  1  0.57530000  0.22670000  0.95700000  0.45 -0.2020371323
C  C660  1  0.57360000  0.22610000  0.91670000  0.45 0.059682406
C  C661  1  0.98600000  0.03230000  0.08210000  0.5 -0.0108323345
C  C662  1  0.98280000  0.03280000  0.04210000  0.5 -0.0990483297
C  C663  1  0.01400000  0.96770000  0.08210000  0.5 -0.0108323345
C  C664  1  0.01720000  0.96720000  0.04210000  0.5 -0.0990483297
C  C665  1  0.96770000  0.98600000  0.08210000  0.5 -0.0108323345
C  C666  1  0.96720000  0.98280000  0.04210000  0.5 -0.0933754607
C  C667  1  0.03230000  0.01400000  0.08210000  0.5 -0.0108323345
C  C668  1  0.03280000  0.01720000  0.04210000  0.5 -0.0990483297
C  C669  1  0.51400000  0.53230000  0.41790000  0.5 -0.0108323345
C  C670  1  0.51720000  0.53280000  0.45790000  0.5 -0.0990483297
C  C671  1  0.48600000  0.46770000  0.41790000  0.5 -0.0108323345
C  C672  1  0.48280000  0.46720000  0.45790000  0.5 -0.0990483297
C  C673  1  0.53230000  0.48600000  0.41790000  0.5 -0.0108323345
C  C674  1  0.53280000  0.48280000  0.45790000  0.5 -0.0990483297
C  C675  1  0.46770000  0.51400000  0.41790000  0.5 -0.0108323345
C  C676  1  0.46720000  0.51720000  0.45790000  0.5 -0.0990483297
C  C677  1  0.01400000  0.96770000  0.91790000  0.5 -0.0108323345
C  C678  1  0.01720000  0.96720000  0.95790000  0.5 -0.0990483297
C  C679  1  0.98600000  0.03230000  0.91790000  0.5 -0.0108323345
C  C680  1  0.98280000  0.03280000  0.95790000  0.5 -0.0933754607
C  C681  1  0.03230000  0.01400000  0.91790000  0.5 -0.0108323345
C  C682  1  0.03280000  0.01720000  0.95790000  0.5 -0.0990483297
C  C683  1  0.96770000  0.98600000  0.91790000  0.5 -0.0108323345
C  C684  1  0.96720000  0.98280000  0.95790000  0.5 -0.0933754607
C  C685  1  0.48600000  0.46770000  0.58210000  0.5 -0.0108323345
C  C686  1  0.48280000  0.46720000  0.54210000  0.5 -0.0990483297
C  C687  1  0.51400000  0.53230000  0.58210000  0.5 -0.0108323345
C  C688  1  0.51720000  0.53280000  0.54210000  0.5 -0.0990483297
C  C689  1  0.46770000  0.51400000  0.58210000  0.5 -0.0108323345
C  C690  1  0.46720000  0.51720000  0.54210000  0.5 -0.0990483297
C  C691  1  0.53230000  0.48600000  0.58210000  0.5 -0.0108323345
C  C692  1  0.53280000  0.48280000  0.54210000  0.5 -0.0990483297
N  N1  1  0.96264000  0.05632000  0.17495000  1.0 -0.3641862957
N  N2  1  0.83360000  0.29850000  0.44061000  1.0 -0.2312417857
N  N3  1  0.03736000  0.94368000  0.17495000  1.0 -0.3641862957
N  N4  1  0.16640000  0.70150000  0.44061000  1.0 -0.2312417857
N  N5  1  0.94368000  0.96264000  0.17495000  1.0 -0.3641862957
N  N6  1  0.70150000  0.83360000  0.44061000  1.0 -0.2312417857
N  N7  1  0.05632000  0.03736000  0.17495000  1.0 -0.3659586444
N  N8  1  0.29850000  0.16640000  0.44061000  1.0 -0.2312417857
N  N9  1  0.53736000  0.55632000  0.32505000  1.0 -0.3659586444
N  N10  1  0.66640000  0.79850000  0.05939000  1.0 -0.2312417857
N  N11  1  0.46264000  0.44368000  0.32505000  1.0 -0.3659586444
N  N12  1  0.33360000  0.20150000  0.05939000  1.0 -0.2312417857
N  N13  1  0.55632000  0.46264000  0.32505000  1.0 -0.3659586444
N  N14  1  0.79850000  0.33360000  0.05939000  1.0 -0.2312417857
N  N15  1  0.44368000  0.53736000  0.32505000  1.0 -0.3659586444
N  N16  1  0.20150000  0.66640000  0.05939000  1.0 -0.2312417857
N  N17  1  0.03736000  0.94368000  0.82505000  1.0 -0.3659586444
N  N18  1  0.16640000  0.70150000  0.55939000  1.0 -0.2312417857
N  N19  1  0.96264000  0.05632000  0.82505000  1.0 -0.3659586444
N  N20  1  0.83360000  0.29850000  0.55939000  1.0 -0.2312417857
N  N21  1  0.05632000  0.03736000  0.82505000  1.0 -0.3659586444
N  N22  1  0.29850000  0.16640000  0.55939000  1.0 -0.2312417857
N  N23  1  0.94368000  0.96264000  0.82505000  1.0 -0.3659586444
N  N24  1  0.70150000  0.83360000  0.55939000  1.0 -0.2312417857
N  N25  1  0.46264000  0.44368000  0.67495000  1.0 -0.3659586444
N  N26  1  0.33360000  0.20150000  0.94061000  1.0 -0.2312417857
N  N27  1  0.53736000  0.55632000  0.67495000  1.0 -0.3659586444
N  N28  1  0.66640000  0.79850000  0.94061000  1.0 -0.2312417857
N  N29  1  0.44368000  0.53736000  0.67495000  1.0 -0.3659586444
N  N30  1  0.20150000  0.66640000  0.94061000  1.0 -0.2312417857
N  N31  1  0.55632000  0.46264000  0.67495000  1.0 -0.3659586444
N  N32  1  0.79850000  0.33360000  0.94061000  1.0 -0.2312417857
N  N33  1  0.00000000  0.00000000  0.10300000  1.0 -0.0933754607
N  N34  1  0.50000000  0.50000000  0.39700000  1.0 -0.0933754607
N  N35  1  0.00000000  0.00000000  0.89700000  1.0 -0.0933754607
N  N36  1  0.50000000  0.50000000  0.60300000  1.0 -0.0933754607
N  N37  1  0.77540000  0.26970000  0.50000000  1.0 -0.2312417857
N  N38  1  0.89460000  0.33120000  0.50000000  1.0 -0.2516966327
N  N39  1  0.22460000  0.73030000  0.50000000  1.0 -0.2312417857
N  N40  1  0.10540000  0.66880000  0.50000000  1.0 -0.2516966327
N  N41  1  0.73030000  0.77540000  0.50000000  1.0 -0.2312417857
N  N42  1  0.66880000  0.89460000  0.50000000  1.0 -0.2516966327
N  N43  1  0.26970000  0.22460000  0.50000000  1.0 -0.2312417857
N  N44  1  0.33120000  0.10540000  0.50000000  1.0 -0.2516966327
N  N45  1  0.72460000  0.76970000  0.00000000  1.0 -0.2312417857
N  N46  1  0.60540000  0.83120000  0.00000000  1.0 -0.2516966327
N  N47  1  0.27540000  0.23030000  0.00000000  1.0 -0.2312417857
N  N48  1  0.39460000  0.16880000  0.00000000  1.0 -0.2516966327
N  N49  1  0.76970000  0.27540000  0.00000000  1.0 -0.2312417857
N  N50  1  0.83120000  0.39460000  0.00000000  1.0 -0.2516966327
N  N51  1  0.23030000  0.72460000  0.00000000  1.0 -0.2312417857
N  N52  1  0.16880000  0.60540000  0.00000000  1.0 -0.2516966327
N  N53  1  0.76220000  0.05710000  0.39665000  0.45 -0.1675201341
N  N54  1  0.23780000  0.94290000  0.39665000  0.45 -0.1675201341
N  N55  1  0.94290000  0.76220000  0.39665000  0.45 -0.1675201341
N  N56  1  0.05710000  0.23780000  0.39665000  0.45 -0.1675201341
N  N57  1  0.73780000  0.55710000  0.10335000  0.45 -0.1675201341
N  N58  1  0.26220000  0.44290000  0.10335000  0.45 -0.1675201341
N  N59  1  0.55710000  0.26220000  0.10335000  0.45 -0.1675201341
N  N60  1  0.44290000  0.73780000  0.10335000  0.45 -0.1675201341
N  N61  1  0.23780000  0.94290000  0.60335000  0.45 -0.1675201341
N  N62  1  0.76220000  0.05710000  0.60335000  0.45 -0.1675201341
N  N63  1  0.05710000  0.23780000  0.60335000  0.45 -0.1675201341
N  N64  1  0.94290000  0.76220000  0.60335000  0.45 -0.1675201341
N  N65  1  0.26220000  0.44290000  0.89665000  0.45 -0.1675201341
N  N66  1  0.73780000  0.55710000  0.89665000  0.45 -0.1675201341
N  N67  1  0.44290000  0.73780000  0.89665000  0.45 -0.1675201341
N  N68  1  0.55710000  0.26220000  0.89665000  0.45 -0.1675201341
O  O1  1  0.70917000  0.08230000  0.23435000  1.0 -0.5163361816
O  O2  1  0.76690000  0.06510000  0.27181000  1.0 -0.4519269145
O  O3  1  0.65380000  0.05110000  0.30734000  1.0 -0.5163361816
O  O4  1  0.71490000  0.03430000  0.34080000  1.0 -0.3837625733
O  O5  1  0.67980000  0.15260000  0.30130000  1.0 -0.4850998609
O  O6  1  0.73630000  0.13100000  0.33907000  1.0 -0.4519269145
O  O7  1  0.82170000  0.08440000  0.34140000  1.0 -0.6129691987
O  O8  1  0.29083000  0.91770000  0.23435000  1.0 -0.5163361816
O  O9  1  0.23310000  0.93490000  0.27181000  1.0 -0.4519269145
O  O10  1  0.34620000  0.94890000  0.30734000  1.0 -0.513368444
O  O11  1  0.28510000  0.96570000  0.34080000  1.0 -0.3837625733
O  O12  1  0.32020000  0.84740000  0.30130000  1.0 -0.4850998609
O  O13  1  0.26370000  0.86900000  0.33907000  1.0 -0.4562638304
O  O14  1  0.17830000  0.91560000  0.34140000  1.0 -0.6129691987
O  O15  1  0.91770000  0.70917000  0.23435000  1.0 -0.5163361816
O  O16  1  0.93490000  0.76690000  0.27181000  1.0 -0.4519269145
O  O17  1  0.94890000  0.65380000  0.30734000  1.0 -0.5163361816
O  O18  1  0.96570000  0.71490000  0.34080000  1.0 -0.3837625733
O  O19  1  0.84740000  0.67980000  0.30130000  1.0 -0.4850998609
O  O20  1  0.86900000  0.73630000  0.33907000  1.0 -0.4562638304
O  O21  1  0.91560000  0.82170000  0.34140000  1.0 -0.6129691987
O  O22  1  0.08230000  0.29083000  0.23435000  1.0 -0.5163361816
O  O23  1  0.06510000  0.23310000  0.27181000  1.0 -0.4519269145
O  O24  1  0.05110000  0.34620000  0.30734000  1.0 -0.513368444
O  O25  1  0.03430000  0.28510000  0.34080000  1.0 -0.3837625733
O  O26  1  0.15260000  0.32020000  0.30130000  1.0 -0.4850998609
O  O27  1  0.13100000  0.26370000  0.33907000  1.0 -0.4519269145
O  O28  1  0.08440000  0.17830000  0.34140000  1.0 -0.6129691987
O  O29  1  0.79083000  0.58230000  0.26565000  1.0 -0.5163361816
O  O30  1  0.73310000  0.56510000  0.22819000  1.0 -0.4519269145
O  O31  1  0.84620000  0.55110000  0.19266000  1.0 -0.5163361816
O  O32  1  0.78510000  0.53430000  0.15920000  1.0 -0.3837625733
O  O33  1  0.82020000  0.65260000  0.19870000  1.0 -0.4850998609
O  O34  1  0.76370000  0.63100000  0.16093000  1.0 -0.4519269145
O  O35  1  0.67830000  0.58440000  0.15860000  1.0 -0.6151283173
O  O36  1  0.20917000  0.41770000  0.26565000  1.0 -0.5163361816
O  O37  1  0.26690000  0.43490000  0.22819000  1.0 -0.4519269145
O  O38  1  0.15380000  0.44890000  0.19266000  1.0 -0.513368444
O  O39  1  0.21490000  0.46570000  0.15920000  1.0 -0.3837625733
O  O40  1  0.17980000  0.34740000  0.19870000  1.0 -0.4850998609
O  O41  1  0.23630000  0.36900000  0.16093000  1.0 -0.4562638304
O  O42  1  0.32170000  0.41560000  0.15860000  1.0 -0.6129691987
O  O43  1  0.58230000  0.20917000  0.26565000  1.0 -0.5163361816
O  O44  1  0.56510000  0.26690000  0.22819000  1.0 -0.4519269145
O  O45  1  0.55110000  0.15380000  0.19266000  1.0 -0.513368444
O  O46  1  0.53430000  0.21490000  0.15920000  1.0 -0.3837625733
O  O47  1  0.65260000  0.17980000  0.19870000  1.0 -0.4850998609
O  O48  1  0.63100000  0.23630000  0.16093000  1.0 -0.4519269145
O  O49  1  0.58440000  0.32170000  0.15860000  1.0 -0.6151283173
O  O50  1  0.41770000  0.79083000  0.26565000  1.0 -0.5163361816
O  O51  1  0.43490000  0.73310000  0.22819000  1.0 -0.4519269145
O  O52  1  0.44890000  0.84620000  0.19266000  1.0 -0.5163361816
O  O53  1  0.46570000  0.78510000  0.15920000  1.0 -0.3837625733
O  O54  1  0.34740000  0.82020000  0.19870000  1.0 -0.4850998609
O  O55  1  0.36900000  0.76370000  0.16093000  1.0 -0.4562638304
O  O56  1  0.41560000  0.67830000  0.15860000  1.0 -0.6129691987
O  O57  1  0.29083000  0.91770000  0.76565000  1.0 -0.5163361816
O  O58  1  0.23310000  0.93490000  0.72819000  1.0 -0.4519269145
O  O59  1  0.34620000  0.94890000  0.69266000  1.0 -0.513368444
O  O60  1  0.28510000  0.96570000  0.65920000  1.0 -0.3837625733
O  O61  1  0.32020000  0.84740000  0.69870000  1.0 -0.4850998609
O  O62  1  0.26370000  0.86900000  0.66093000  1.0 -0.4562638304
O  O63  1  0.17830000  0.91560000  0.65860000  1.0 -0.6129691987
O  O64  1  0.70917000  0.08230000  0.76565000  1.0 -0.5163361816
O  O65  1  0.76690000  0.06510000  0.72819000  1.0 -0.4519269145
O  O66  1  0.65380000  0.05110000  0.69266000  1.0 -0.5163361816
O  O67  1  0.71490000  0.03430000  0.65920000  1.0 -0.3837625733
O  O68  1  0.67980000  0.15260000  0.69870000  1.0 -0.4850998609
O  O69  1  0.73630000  0.13100000  0.66093000  1.0 -0.4519269145
O  O70  1  0.82170000  0.08440000  0.65860000  1.0 -0.6129691987
O  O71  1  0.08230000  0.29083000  0.76565000  1.0 -0.5163361816
O  O72  1  0.06510000  0.23310000  0.72819000  1.0 -0.4519269145
O  O73  1  0.05110000  0.34620000  0.69266000  1.0 -0.513368444
O  O74  1  0.03430000  0.28510000  0.65920000  1.0 -0.3837625733
O  O75  1  0.15260000  0.32020000  0.69870000  1.0 -0.4850998609
O  O76  1  0.13100000  0.26370000  0.66093000  1.0 -0.4519269145
O  O77  1  0.08440000  0.17830000  0.65860000  1.0 -0.6129691987
O  O78  1  0.91770000  0.70917000  0.76565000  1.0 -0.5163361816
O  O79  1  0.93490000  0.76690000  0.72819000  1.0 -0.4519269145
O  O80  1  0.94890000  0.65380000  0.69266000  1.0 -0.5163361816
O  O81  1  0.96570000  0.71490000  0.65920000  1.0 -0.3837625733
O  O82  1  0.84740000  0.67980000  0.69870000  1.0 -0.4850998609
O  O83  1  0.86900000  0.73630000  0.66093000  1.0 -0.4562638304
O  O84  1  0.91560000  0.82170000  0.65860000  1.0 -0.6129691987
O  O85  1  0.20917000  0.41770000  0.73435000  1.0 -0.5163361816
O  O86  1  0.26690000  0.43490000  0.77181000  1.0 -0.4519269145
O  O87  1  0.15380000  0.44890000  0.80734000  1.0 -0.513368444
O  O88  1  0.21490000  0.46570000  0.84080000  1.0 -0.3837625733
O  O89  1  0.17980000  0.34740000  0.80130000  1.0 -0.4850998609
O  O90  1  0.23630000  0.36900000  0.83907000  1.0 -0.4562638304
O  O91  1  0.32170000  0.41560000  0.84140000  1.0 -0.6129691987
O  O92  1  0.79083000  0.58230000  0.73435000  1.0 -0.5163361816
O  O93  1  0.73310000  0.56510000  0.77181000  1.0 -0.4519269145
O  O94  1  0.84620000  0.55110000  0.80734000  1.0 -0.5163361816
O  O95  1  0.78510000  0.53430000  0.84080000  1.0 -0.3837625733
O  O96  1  0.82020000  0.65260000  0.80130000  1.0 -0.4845832674
O  O97  1  0.76370000  0.63100000  0.83907000  1.0 -0.4519269145
O  O98  1  0.67830000  0.58440000  0.84140000  1.0 -0.6129691987
O  O99  1  0.41770000  0.79083000  0.73435000  1.0 -0.5163361816
O  O100  1  0.43490000  0.73310000  0.77181000  1.0 -0.4519269145
O  O101  1  0.44890000  0.84620000  0.80734000  1.0 -0.5163361816
O  O102  1  0.46570000  0.78510000  0.84080000  1.0 -0.3837625733
O  O103  1  0.34740000  0.82020000  0.80130000  1.0 -0.4850998609
O  O104  1  0.36900000  0.76370000  0.83907000  1.0 -0.4562638304
O  O105  1  0.41560000  0.67830000  0.84140000  1.0 -0.6129691987
O  O106  1  0.58230000  0.20917000  0.73435000  1.0 -0.5163361816
O  O107  1  0.56510000  0.26690000  0.77181000  1.0 -0.4519269145
O  O108  1  0.55110000  0.15380000  0.80734000  1.0 -0.513368444
O  O109  1  0.53430000  0.21490000  0.84080000  1.0 -0.3837625733
O  O110  1  0.65260000  0.17980000  0.80130000  1.0 -0.4850998609
O  O111  1  0.63100000  0.23630000  0.83907000  1.0 -0.4519269145
O  O112  1  0.58440000  0.32170000  0.84140000  1.0 -0.6151283173
O  O113  1  0.85870000  0.24360000  0.50000000  1.0 -0.5301342844
O  O114  1  0.80960000  0.35550000  0.50000000  1.0 -0.4273302941
O  O115  1  0.14130000  0.75640000  0.50000000  1.0 -0.5387334167
O  O116  1  0.19040000  0.64450000  0.50000000  1.0 -0.4230333953
O  O117  1  0.75640000  0.85870000  0.50000000  1.0 -0.5387334167
O  O118  1  0.64450000  0.80960000  0.50000000  1.0 -0.4273302941
O  O119  1  0.24360000  0.14130000  0.50000000  1.0 -0.5301342844
O  O120  1  0.35550000  0.19040000  0.50000000  1.0 -0.4273302941
O  O121  1  0.64130000  0.74360000  0.00000000  1.0 -0.5387334167
O  O122  1  0.69040000  0.85550000  0.00000000  1.0 -0.4273302941
O  O123  1  0.35870000  0.25640000  0.00000000  1.0 -0.5301342844
O  O124  1  0.30960000  0.14450000  0.00000000  1.0 -0.4273302941
O  O125  1  0.74360000  0.35870000  0.00000000  1.0 -0.5301342844
O  O126  1  0.85550000  0.30960000  0.00000000  1.0 -0.4273302941
O  O127  1  0.25640000  0.64130000  0.00000000  1.0 -0.5387334167
O  O128  1  0.14450000  0.69040000  0.00000000  1.0 -0.4273302941
O  O129  1  0.61220000  0.11220000  0.25000000  1.0 -0.8181212484
O  O130  1  0.38780000  0.88780000  0.25000000  1.0 -0.8066841154
O  O131  1  0.88780000  0.61220000  0.25000000  1.0 -0.8066841154
O  O132  1  0.11220000  0.38780000  0.25000000  1.0 -0.8181212484
O  O133  1  0.38780000  0.88780000  0.75000000  1.0 -0.8066841154
O  O134  1  0.61220000  0.11220000  0.75000000  1.0 -0.8181212484
O  O135  1  0.11220000  0.38780000  0.75000000  1.0 -0.8181212484
O  O136  1  0.88780000  0.61220000  0.75000000  1.0 -0.8066841154
O  O137  1  0.79090000  0.99520000  0.33390000  0.45 -0.1890779055
O  O138  1  0.20910000  0.00480000  0.33390000  0.45 -0.1890779055
O  O139  1  0.00480000  0.79090000  0.33390000  0.45 -0.1890779055
O  O140  1  0.99520000  0.20910000  0.33390000  0.45 -0.1890779055
O  O141  1  0.70910000  0.49520000  0.16610000  0.45 -0.2020371323
O  O142  1  0.29090000  0.50480000  0.16610000  0.45 -0.1890779055
O  O143  1  0.49520000  0.29090000  0.16610000  0.45 -0.2020371323
O  O144  1  0.50480000  0.70910000  0.16610000  0.45 -0.1890779055
O  O145  1  0.20910000  0.00480000  0.66610000  0.45 -0.1890779055
O  O146  1  0.79090000  0.99520000  0.66610000  0.45 -0.1890779055
O  O147  1  0.99520000  0.20910000  0.66610000  0.45 -0.1890779055
O  O148  1  0.00480000  0.79090000  0.66610000  0.45 -0.1890779055
O  O149  1  0.29090000  0.50480000  0.83390000  0.45 -0.1890779055
O  O150  1  0.70910000  0.49520000  0.83390000  0.45 -0.1890779055
O  O151  1  0.50480000  0.70910000  0.83390000  0.45 -0.1890779055
O  O152  1  0.49520000  0.29090000  0.83390000  0.45 -0.2020371323
