# DDEC6 charges by PACMAN v1.1 (https://github.com/mtap-research/PACMAN-charge/)
data_2016[Ti][srs]3[FSR]1
_chemical_formula_sum              "Ti16 H48 C192 O144"
_cell_length_a       22.9118
_cell_length_b       22.9118
_cell_length_c       22.9118
_cell_angle_alpha    90
_cell_angle_beta     90
_cell_angle_gamma    90

_symmetry_space_group_name_H-M    "P 1"
_symmetry_Int_Tables_number       1

loop_
  _symmetry_equiv_pos_as_xyz
  'x, y, z'

loop_
  _atom_site_type_symbol
  _atom_site_label
  _atom_site_symmetry_multiplicity
  _atom_site_fract_x
  _atom_site_fract_y
  _atom_site_fract_z
  _atom_site_occupancy
  _atom_site_charge
Ti  Ti1       1.0  0.64905  0.64905  0.64905  1.0000 1.2513312286
Ti  Ti2       1.0  0.64905  0.35095  0.85095  1.0000 1.2513312286
Ti  Ti3       1.0  0.14905  0.14905  0.14905  1.0000 1.2563785774
Ti  Ti4       1.0  0.14905  0.85095  0.35095  1.0000 1.2563785774
Ti  Ti5       1.0  0.35095  0.14905  0.85095  1.0000 1.2513312286
Ti  Ti6       1.0  0.35095  0.85095  0.64905  1.0000 1.2513312286
Ti  Ti7       1.0  0.85095  0.64905  0.35095  1.0000 1.2513312286
Ti  Ti8       1.0  0.85095  0.35095  0.14905  1.0000 1.2513312286
Ti  Ti9       1.0  0.39905  0.60095  0.10095  1.0000 1.2513312286
Ti  Ti10      1.0  0.39905  0.39905  0.39905  1.0000 1.2513312286
Ti  Ti11      1.0  0.89905  0.10095  0.60095  1.0000 1.2513312286
Ti  Ti12      1.0  0.89905  0.89905  0.89905  1.0000 1.2513312286
Ti  Ti13      1.0  0.10095  0.39905  0.60095  1.0000 1.2563785774
Ti  Ti14      1.0  0.10095  0.60095  0.89905  1.0000 1.2513312286
Ti  Ti15      1.0  0.60095  0.89905  0.10095  1.0000 1.2513312286
Ti  Ti16      1.0  0.60095  0.10095  0.39905  1.0000 1.2513312286
H   H1        1.0  0.67320  0.53640  0.84589  1.0000 0.1495300268
H   H2        1.0  0.67320  0.46360  0.65411  1.0000 0.1495300268
H   H3        1.0  0.17320  0.03640  0.34589  1.0000 0.1495300268
H   H4        1.0  0.17320  0.96360  0.15411  1.0000 0.1495300268
H   H5        1.0  0.15411  0.17320  0.96360  1.0000 0.1495300268
H   H6        1.0  0.15411  0.82680  0.53640  1.0000 0.1495300268
H   H7        1.0  0.65411  0.67320  0.46360  1.0000 0.1495300268
H   H8        1.0  0.65411  0.32680  0.03640  1.0000 0.1495300268
H   H9        1.0  0.03640  0.65411  0.32680  1.0000 0.1495300268
H   H10       1.0  0.03640  0.34589  0.17320  1.0000 0.1495300268
H   H11       1.0  0.53640  0.15411  0.82680  1.0000 0.1495300268
H   H12       1.0  0.53640  0.84589  0.67320  1.0000 0.1495300268
H   H13       1.0  0.46360  0.65411  0.67320  1.0000 0.1495300268
H   H14       1.0  0.46360  0.34589  0.82680  1.0000 0.1495300268
H   H15       1.0  0.96360  0.15411  0.17320  1.0000 0.1495300268
H   H16       1.0  0.96360  0.84589  0.32680  1.0000 0.1495300268
H   H17       1.0  0.34589  0.17320  0.03640  1.0000 0.1495300268
H   H18       1.0  0.34589  0.82680  0.46360  1.0000 0.1495300268
H   H19       1.0  0.84589  0.67320  0.53640  1.0000 0.1495300268
H   H20       1.0  0.84589  0.32680  0.96360  1.0000 0.1495300268
H   H21       1.0  0.82680  0.53640  0.15411  1.0000 0.1495300268
H   H22       1.0  0.82680  0.46360  0.34589  1.0000 0.1495300268
H   H23       1.0  0.32680  0.03640  0.65411  1.0000 0.1495300268
H   H24       1.0  0.32680  0.96360  0.84589  1.0000 0.1495300268
H   H25       1.0  0.42320  0.40411  0.21360  1.0000 0.1495300268
H   H26       1.0  0.42320  0.59589  0.28640  1.0000 0.1495300268
H   H27       1.0  0.92320  0.90411  0.71360  1.0000 0.1495300268
H   H28       1.0  0.92320  0.09589  0.78640  1.0000 0.1495300268
H   H29       1.0  0.90411  0.28640  0.57680  1.0000 0.1495300268
H   H30       1.0  0.90411  0.71360  0.92320  1.0000 0.1495300268
H   H31       1.0  0.40411  0.78640  0.07680  1.0000 0.1495300268
H   H32       1.0  0.40411  0.21360  0.42320  1.0000 0.1495300268
H   H33       1.0  0.78640  0.92320  0.09589  1.0000 0.1495300268
H   H34       1.0  0.78640  0.07680  0.40411  1.0000 0.1495300268
H   H35       1.0  0.28640  0.42320  0.59589  1.0000 0.1495300268
H   H36       1.0  0.28640  0.57680  0.90411  1.0000 0.1495300268
H   H37       1.0  0.21360  0.42320  0.40411  1.0000 0.1495300268
H   H38       1.0  0.21360  0.57680  0.09589  1.0000 0.1495300268
H   H39       1.0  0.71360  0.92320  0.90411  1.0000 0.1495300268
H   H40       1.0  0.71360  0.07680  0.59589  1.0000 0.1495300268
H   H41       1.0  0.09589  0.78640  0.92320  1.0000 0.1495300268
H   H42       1.0  0.09589  0.21360  0.57680  1.0000 0.1495300268
H   H43       1.0  0.59589  0.28640  0.42320  1.0000 0.1495300268
H   H44       1.0  0.59589  0.71360  0.07680  1.0000 0.1495300268
H   H45       1.0  0.57680  0.90411  0.28640  1.0000 0.1495300268
H   H46       1.0  0.57680  0.09589  0.21360  1.0000 0.1495300268
H   H47       1.0  0.07680  0.40411  0.78640  1.0000 0.1495300268
H   H48       1.0  0.07680  0.59589  0.71360  1.0000 0.1495300268
C   C1        1.0  0.67320  0.44098  0.74042  1.0000 -0.0786733329
C   C2        1.0  0.67320  0.55902  0.75958  1.0000 -0.0786733329
C   C3        1.0  0.17320  0.94098  0.24042  1.0000 -0.0786733329
C   C4        1.0  0.17320  0.05902  0.25958  1.0000 -0.0786733329
C   C5        1.0  0.25958  0.17320  0.05902  1.0000 -0.0786733329
C   C6        1.0  0.25958  0.82680  0.44098  1.0000 -0.0786733329
C   C7        1.0  0.75958  0.67320  0.55902  1.0000 -0.0786733329
C   C8        1.0  0.75958  0.32680  0.94098  1.0000 -0.0786733329
C   C9        1.0  0.94098  0.75958  0.32680  1.0000 -0.0786733329
C   C10       1.0  0.94098  0.24042  0.17320  1.0000 -0.0786733329
C   C11       1.0  0.44098  0.25958  0.82680  1.0000 -0.0786733329
C   C12       1.0  0.44098  0.74042  0.67320  1.0000 -0.0786733329
C   C13       1.0  0.55902  0.75958  0.67320  1.0000 -0.0786733329
C   C14       1.0  0.55902  0.24042  0.82680  1.0000 -0.0786733329
C   C15       1.0  0.05902  0.25958  0.17320  1.0000 -0.0786733329
C   C16       1.0  0.05902  0.74042  0.32680  1.0000 -0.0786733329
C   C17       1.0  0.24042  0.17320  0.94098  1.0000 -0.0786733329
C   C18       1.0  0.24042  0.82680  0.55902  1.0000 -0.0786733329
C   C19       1.0  0.74042  0.67320  0.44098  1.0000 -0.0786733329
C   C20       1.0  0.74042  0.32680  0.05902  1.0000 -0.0786733329
C   C21       1.0  0.82680  0.44098  0.25958  1.0000 -0.0786733329
C   C22       1.0  0.82680  0.55902  0.24042  1.0000 -0.0786733329
C   C23       1.0  0.32680  0.94098  0.75958  1.0000 -0.0786733329
C   C24       1.0  0.32680  0.05902  0.74042  1.0000 -0.0786733329
C   C25       1.0  0.67320  0.46220  0.79633  1.0000 0.2932926603
C   C26       1.0  0.67320  0.53780  0.70367  1.0000 0.2932926603
C   C27       1.0  0.17320  0.96220  0.29633  1.0000 0.2932926603
C   C28       1.0  0.17320  0.03780  0.20367  1.0000 0.2932926603
C   C29       1.0  0.20367  0.17320  0.03780  1.0000 0.2932926603
C   C30       1.0  0.20367  0.82680  0.46220  1.0000 0.2932926603
C   C31       1.0  0.70367  0.67320  0.53780  1.0000 0.2932926603
C   C32       1.0  0.70367  0.32680  0.96220  1.0000 0.2932926603
C   C33       1.0  0.96220  0.70367  0.32680  1.0000 0.2932926603
C   C34       1.0  0.96220  0.29633  0.17320  1.0000 0.2932926603
C   C35       1.0  0.46220  0.20367  0.82680  1.0000 0.2932926603
C   C36       1.0  0.46220  0.79633  0.67320  1.0000 0.2932926603
C   C37       1.0  0.53780  0.70367  0.67320  1.0000 0.2932926603
C   C38       1.0  0.53780  0.29633  0.82680  1.0000 0.2932926603
C   C39       1.0  0.03780  0.20367  0.17320  1.0000 0.2932926603
C   C40       1.0  0.03780  0.79633  0.32680  1.0000 0.2932926603
C   C41       1.0  0.29633  0.17320  0.96220  1.0000 0.2932926603
C   C42       1.0  0.29633  0.82680  0.53780  1.0000 0.2932926603
C   C43       1.0  0.79633  0.67320  0.46220  1.0000 0.2932926603
C   C44       1.0  0.79633  0.32680  0.03780  1.0000 0.2932926603
C   C45       1.0  0.82680  0.46220  0.20367  1.0000 0.2932926603
C   C46       1.0  0.82680  0.53780  0.29633  1.0000 0.2932926603
C   C47       1.0  0.32680  0.96220  0.70367  1.0000 0.2932926603
C   C48       1.0  0.32680  0.03780  0.79633  1.0000 0.2932926603
C   C49       1.0  0.67320  0.52122  0.80590  1.0000 -0.0974228615
C   C50       1.0  0.67320  0.47878  0.69410  1.0000 -0.0974228615
C   C51       1.0  0.17320  0.02122  0.30590  1.0000 -0.0974228615
C   C52       1.0  0.17320  0.97878  0.19410  1.0000 -0.0974228615
C   C53       1.0  0.19410  0.17320  0.97878  1.0000 -0.0974228615
C   C54       1.0  0.19410  0.82680  0.52122  1.0000 -0.0974228615
C   C55       1.0  0.69410  0.67320  0.47878  1.0000 -0.0974228615
C   C56       1.0  0.69410  0.32680  0.02122  1.0000 -0.0974228615
C   C57       1.0  0.02122  0.69410  0.32680  1.0000 -0.0974228615
C   C58       1.0  0.02122  0.30590  0.17320  1.0000 -0.0974228615
C   C59       1.0  0.52122  0.19410  0.82680  1.0000 -0.0974228615
C   C60       1.0  0.52122  0.80590  0.67320  1.0000 -0.0974228615
C   C61       1.0  0.47878  0.69410  0.67320  1.0000 -0.0974228615
C   C62       1.0  0.47878  0.30590  0.82680  1.0000 -0.0974228615
C   C63       1.0  0.97878  0.19410  0.17320  1.0000 -0.0974228615
C   C64       1.0  0.97878  0.80590  0.32680  1.0000 -0.0974228615
C   C65       1.0  0.30590  0.17320  0.02122  1.0000 -0.0974228615
C   C66       1.0  0.30590  0.82680  0.47878  1.0000 -0.0974228615
C   C67       1.0  0.80590  0.67320  0.52122  1.0000 -0.0974228615
C   C68       1.0  0.80590  0.32680  0.97878  1.0000 -0.0974228615
C   C69       1.0  0.82680  0.52122  0.19410  1.0000 -0.0974228615
C   C70       1.0  0.82680  0.47878  0.30590  1.0000 -0.0974228615
C   C71       1.0  0.32680  0.02122  0.69410  1.0000 -0.0974228615
C   C72       1.0  0.32680  0.97878  0.80590  1.0000 -0.0974228615
C   C73       1.0  0.67320  0.37759  0.73014  1.0000 0.5945541289
C   C74       1.0  0.67320  0.62241  0.76986  1.0000 0.5945541289
C   C75       1.0  0.17320  0.87759  0.23014  1.0000 0.5954593284
C   C76       1.0  0.17320  0.12241  0.26986  1.0000 0.5945541289
C   C77       1.0  0.26986  0.17320  0.12241  1.0000 0.5945541289
C   C78       1.0  0.26986  0.82680  0.37759  1.0000 0.5954593284
C   C79       1.0  0.76986  0.67320  0.62241  1.0000 0.5945541289
C   C80       1.0  0.76986  0.32680  0.87759  1.0000 0.5945541289
C   C81       1.0  0.87759  0.76986  0.32680  1.0000 0.5945541289
C   C82       1.0  0.87759  0.23014  0.17320  1.0000 0.5945541289
C   C83       1.0  0.37759  0.26986  0.82680  1.0000 0.5945541289
C   C84       1.0  0.37759  0.73014  0.67320  1.0000 0.5945541289
C   C85       1.0  0.62241  0.76986  0.67320  1.0000 0.5945541289
C   C86       1.0  0.62241  0.23014  0.82680  1.0000 0.5945541289
C   C87       1.0  0.12241  0.26986  0.17320  1.0000 0.5945541289
C   C88       1.0  0.12241  0.73014  0.32680  1.0000 0.5954593284
C   C89       1.0  0.23014  0.17320  0.87759  1.0000 0.5945541289
C   C90       1.0  0.23014  0.82680  0.62241  1.0000 0.5954593284
C   C91       1.0  0.73014  0.67320  0.37759  1.0000 0.5945541289
C   C92       1.0  0.73014  0.32680  0.12241  1.0000 0.5945541289
C   C93       1.0  0.82680  0.37759  0.26986  1.0000 0.5945541289
C   C94       1.0  0.82680  0.62241  0.23014  1.0000 0.5945541289
C   C95       1.0  0.32680  0.87759  0.76986  1.0000 0.5945541289
C   C96       1.0  0.32680  0.12241  0.73014  1.0000 0.5945541289
C   C97       1.0  0.42320  0.50958  0.30902  1.0000 -0.0786733329
C   C98       1.0  0.42320  0.49042  0.19098  1.0000 -0.0786733329
C   C99       1.0  0.92320  0.00958  0.80902  1.0000 -0.0786733329
C   C100      1.0  0.92320  0.99042  0.69098  1.0000 -0.0786733329
C   C101      1.0  0.00958  0.19098  0.57680  1.0000 -0.0786733329
C   C102      1.0  0.00958  0.80902  0.92320  1.0000 -0.0786733329
C   C103      1.0  0.50958  0.69098  0.07680  1.0000 -0.0786733329
C   C104      1.0  0.50958  0.30902  0.42320  1.0000 -0.0786733329
C   C105      1.0  0.69098  0.92320  0.99042  1.0000 -0.0786733329
C   C106      1.0  0.69098  0.07680  0.50958  1.0000 -0.0786733329
C   C107      1.0  0.19098  0.42320  0.49042  1.0000 -0.0786733329
C   C108      1.0  0.19098  0.57680  0.00958  1.0000 -0.0786733329
C   C109      1.0  0.30902  0.42320  0.50958  1.0000 -0.0786733329
C   C110      1.0  0.30902  0.57680  0.99042  1.0000 -0.0786733329
C   C111      1.0  0.80902  0.92320  0.00958  1.0000 -0.0786733329
C   C112      1.0  0.80902  0.07680  0.49042  1.0000 -0.0786733329
C   C113      1.0  0.99042  0.69098  0.92320  1.0000 -0.0786733329
C   C114      1.0  0.99042  0.30902  0.57680  1.0000 -0.0786733329
C   C115      1.0  0.49042  0.19098  0.42320  1.0000 -0.0786733329
C   C116      1.0  0.49042  0.80902  0.07680  1.0000 -0.0786733329
C   C117      1.0  0.57680  0.00958  0.19098  1.0000 -0.0786733329
C   C118      1.0  0.57680  0.99042  0.30902  1.0000 -0.0786733329
C   C119      1.0  0.07680  0.50958  0.69098  1.0000 -0.0786733329
C   C120      1.0  0.07680  0.49042  0.80902  1.0000 -0.0786733329
C   C121      1.0  0.42320  0.45367  0.28780  1.0000 0.2932926603
C   C122      1.0  0.42320  0.54633  0.21220  1.0000 0.2932926603
C   C123      1.0  0.92320  0.95367  0.78780  1.0000 0.2932926603
C   C124      1.0  0.92320  0.04633  0.71220  1.0000 0.2932926603
C   C125      1.0  0.95367  0.21220  0.57680  1.0000 0.2932926603
C   C126      1.0  0.95367  0.78780  0.92320  1.0000 0.2932926603
C   C127      1.0  0.45367  0.71220  0.07680  1.0000 0.2932926603
C   C128      1.0  0.45367  0.28780  0.42320  1.0000 0.2932926603
C   C129      1.0  0.71220  0.92320  0.04633  1.0000 0.2932926603
C   C130      1.0  0.71220  0.07680  0.45367  1.0000 0.2932926603
C   C131      1.0  0.21220  0.42320  0.54633  1.0000 0.2932926603
C   C132      1.0  0.21220  0.57680  0.95367  1.0000 0.2932926603
C   C133      1.0  0.28780  0.42320  0.45367  1.0000 0.2932926603
C   C134      1.0  0.28780  0.57680  0.04633  1.0000 0.2932926603
C   C135      1.0  0.78780  0.92320  0.95367  1.0000 0.2932926603
C   C136      1.0  0.78780  0.07680  0.54633  1.0000 0.2932926603
C   C137      1.0  0.04633  0.71220  0.92320  1.0000 0.2932926603
C   C138      1.0  0.04633  0.28780  0.57680  1.0000 0.2932926603
C   C139      1.0  0.54633  0.21220  0.42320  1.0000 0.2932926603
C   C140      1.0  0.54633  0.78780  0.07680  1.0000 0.2932926603
C   C141      1.0  0.57680  0.95367  0.21220  1.0000 0.2932926603
C   C142      1.0  0.57680  0.04633  0.28780  1.0000 0.2932926603
C   C143      1.0  0.07680  0.45367  0.71220  1.0000 0.2932926603
C   C144      1.0  0.07680  0.54633  0.78780  1.0000 0.2932926603
C   C145      1.0  0.42320  0.44410  0.22878  1.0000 -0.0974228615
C   C146      1.0  0.42320  0.55590  0.27122  1.0000 -0.0974228615
C   C147      1.0  0.92320  0.94410  0.72878  1.0000 -0.0974228615
C   C148      1.0  0.92320  0.05590  0.77122  1.0000 -0.0974228615
C   C149      1.0  0.94410  0.27122  0.57680  1.0000 -0.0974228615
C   C150      1.0  0.94410  0.72878  0.92320  1.0000 -0.0974228615
C   C151      1.0  0.44410  0.77122  0.07680  1.0000 -0.0974228615
C   C152      1.0  0.44410  0.22878  0.42320  1.0000 -0.0974228615
C   C153      1.0  0.77122  0.92320  0.05590  1.0000 -0.0974228615
C   C154      1.0  0.77122  0.07680  0.44410  1.0000 -0.0974228615
C   C155      1.0  0.27122  0.42320  0.55590  1.0000 -0.0974228615
C   C156      1.0  0.27122  0.57680  0.94410  1.0000 -0.0974228615
C   C157      1.0  0.22878  0.42320  0.44410  1.0000 -0.0974228615
C   C158      1.0  0.22878  0.57680  0.05590  1.0000 -0.0974228615
C   C159      1.0  0.72878  0.92320  0.94410  1.0000 -0.0974228615
C   C160      1.0  0.72878  0.07680  0.55590  1.0000 -0.0974228615
C   C161      1.0  0.05590  0.77122  0.92320  1.0000 -0.0974228615
C   C162      1.0  0.05590  0.22878  0.57680  1.0000 -0.0974228615
C   C163      1.0  0.55590  0.27122  0.42320  1.0000 -0.0974228615
C   C164      1.0  0.55590  0.72878  0.07680  1.0000 -0.0974228615
C   C165      1.0  0.57680  0.94410  0.27122  1.0000 -0.0974228615
C   C166      1.0  0.57680  0.05590  0.22878  1.0000 -0.0974228615
C   C167      1.0  0.07680  0.44410  0.77122  1.0000 -0.0974228615
C   C168      1.0  0.07680  0.55590  0.72878  1.0000 -0.0974228615
C   C169      1.0  0.42320  0.51986  0.37241  1.0000 0.5945541289
C   C170      1.0  0.42320  0.48014  0.12759  1.0000 0.5945541289
C   C171      1.0  0.92320  0.01986  0.87241  1.0000 0.5945541289
C   C172      1.0  0.92320  0.98014  0.62759  1.0000 0.5945541289
C   C173      1.0  0.01986  0.12759  0.57680  1.0000 0.5945541289
C   C174      1.0  0.01986  0.87241  0.92320  1.0000 0.5945541289
C   C175      1.0  0.51986  0.62759  0.07680  1.0000 0.5945541289
C   C176      1.0  0.51986  0.37241  0.42320  1.0000 0.5945541289
C   C177      1.0  0.62759  0.92320  0.98014  1.0000 0.5945541289
C   C178      1.0  0.62759  0.07680  0.51986  1.0000 0.5945541289
C   C179      1.0  0.12759  0.42320  0.48014  1.0000 0.5945541289
C   C180      1.0  0.12759  0.57680  0.01986  1.0000 0.5945541289
C   C181      1.0  0.37241  0.42320  0.51986  1.0000 0.5945541289
C   C182      1.0  0.37241  0.57680  0.98014  1.0000 0.5945541289
C   C183      1.0  0.87241  0.92320  0.01986  1.0000 0.5945541289
C   C184      1.0  0.87241  0.07680  0.48014  1.0000 0.5945541289
C   C185      1.0  0.98014  0.62759  0.92320  1.0000 0.5945541289
C   C186      1.0  0.98014  0.37241  0.57680  1.0000 0.5945541289
C   C187      1.0  0.48014  0.12759  0.42320  1.0000 0.5945541289
C   C188      1.0  0.48014  0.87241  0.07680  1.0000 0.5945541289
C   C189      1.0  0.57680  0.01986  0.12759  1.0000 0.5945541289
C   C190      1.0  0.57680  0.98014  0.37241  1.0000 0.5945541289
C   C191      1.0  0.07680  0.51986  0.62759  1.0000 0.5945541289
C   C192      1.0  0.07680  0.48014  0.87241  1.0000 0.5945541289
O   O1        1.0  0.68291  0.35830  0.68149  1.0000 -0.3026537138
O   O2        1.0  0.68291  0.64170  0.81851  1.0000 -0.3026537138
O   O3        1.0  0.18291  0.85830  0.18149  1.0000 -0.3026537138
O   O4        1.0  0.18291  0.14170  0.31851  1.0000 -0.3026537138
O   O5        1.0  0.31851  0.18291  0.14170  1.0000 -0.3026537138
O   O6        1.0  0.31851  0.81709  0.35830  1.0000 -0.3026537138
O   O7        1.0  0.81851  0.68291  0.64170  1.0000 -0.3026537138
O   O8        1.0  0.81851  0.31709  0.85830  1.0000 -0.3026537138
O   O9        1.0  0.85830  0.81851  0.31709  1.0000 -0.3026537138
O   O10       1.0  0.85830  0.18149  0.18291  1.0000 -0.3026537138
O   O11       1.0  0.35830  0.31851  0.81709  1.0000 -0.3026537138
O   O12       1.0  0.35830  0.68149  0.68291  1.0000 -0.3026537138
O   O13       1.0  0.64170  0.81851  0.68291  1.0000 -0.3026537138
O   O14       1.0  0.64170  0.18149  0.81709  1.0000 -0.3026537138
O   O15       1.0  0.14170  0.31851  0.18291  1.0000 -0.3026537138
O   O16       1.0  0.14170  0.68149  0.31709  1.0000 -0.3026537138
O   O17       1.0  0.18149  0.18291  0.85830  1.0000 -0.3026537138
O   O18       1.0  0.18149  0.81709  0.64170  1.0000 -0.3026537138
O   O19       1.0  0.68149  0.68291  0.35830  1.0000 -0.3026537138
O   O20       1.0  0.68149  0.31709  0.14170  1.0000 -0.3026537138
O   O21       1.0  0.81709  0.35830  0.31851  1.0000 -0.3026537138
O   O22       1.0  0.81709  0.64170  0.18149  1.0000 -0.3026537138
O   O23       1.0  0.31709  0.85830  0.81851  1.0000 -0.3026537138
O   O24       1.0  0.31709  0.14170  0.68149  1.0000 -0.3026537138
O   O25       1.0  0.66361  0.34400  0.77090  1.0000 -0.4436032418
O   O26       1.0  0.66361  0.65600  0.72910  1.0000 -0.4436032418
O   O27       1.0  0.16361  0.84400  0.27090  1.0000 -0.4436032418
O   O28       1.0  0.16361  0.15600  0.22910  1.0000 -0.4436032418
O   O29       1.0  0.22910  0.16361  0.15600  1.0000 -0.4436032418
O   O30       1.0  0.22910  0.83639  0.34400  1.0000 -0.4436032418
O   O31       1.0  0.72910  0.66361  0.65600  1.0000 -0.4436032418
O   O32       1.0  0.72910  0.33638  0.84400  1.0000 -0.4436032418
O   O33       1.0  0.84400  0.72910  0.33638  1.0000 -0.4436032418
O   O34       1.0  0.84400  0.27090  0.16361  1.0000 -0.4436032418
O   O35       1.0  0.34400  0.22910  0.83639  1.0000 -0.4436032418
O   O36       1.0  0.34400  0.77090  0.66361  1.0000 -0.4436032418
O   O37       1.0  0.65600  0.72910  0.66361  1.0000 -0.4436032418
O   O38       1.0  0.65600  0.27090  0.83639  1.0000 -0.4436032418
O   O39       1.0  0.15600  0.22910  0.16361  1.0000 -0.4436032418
O   O40       1.0  0.15600  0.77090  0.33638  1.0000 -0.4436032418
O   O41       1.0  0.27090  0.16361  0.84400  1.0000 -0.4436032418
O   O42       1.0  0.27090  0.83639  0.65600  1.0000 -0.4436032418
O   O43       1.0  0.77090  0.66361  0.34400  1.0000 -0.4436032418
O   O44       1.0  0.77090  0.33638  0.15600  1.0000 -0.4436032418
O   O45       1.0  0.83639  0.34400  0.22910  1.0000 -0.4436032418
O   O46       1.0  0.83639  0.65600  0.27090  1.0000 -0.4436032418
O   O47       1.0  0.33638  0.84400  0.72910  1.0000 -0.4436032418
O   O48       1.0  0.33638  0.15600  0.77090  1.0000 -0.4436032418
O   O49       1.0  0.67320  0.42632  0.84029  1.0000 -0.5325249682
O   O50       1.0  0.67320  0.57368  0.65971  1.0000 -0.5325249682
O   O51       1.0  0.17320  0.92632  0.34029  1.0000 -0.5325249682
O   O52       1.0  0.17320  0.07368  0.15971  1.0000 -0.5325249682
O   O53       1.0  0.15971  0.17320  0.07368  1.0000 -0.5325249682
O   O54       1.0  0.15971  0.82680  0.42632  1.0000 -0.5325249682
O   O55       1.0  0.65971  0.67320  0.57368  1.0000 -0.5325249682
O   O56       1.0  0.65971  0.32680  0.92632  1.0000 -0.5325249682
O   O57       1.0  0.92632  0.65971  0.32680  1.0000 -0.5325249682
O   O58       1.0  0.92632  0.34029  0.17320  1.0000 -0.5325249682
O   O59       1.0  0.42632  0.15971  0.82680  1.0000 -0.5325249682
O   O60       1.0  0.42632  0.84029  0.67320  1.0000 -0.5325249682
O   O61       1.0  0.57368  0.65971  0.67320  1.0000 -0.5325249682
O   O62       1.0  0.57368  0.34029  0.82680  1.0000 -0.5325249682
O   O63       1.0  0.07368  0.15971  0.17320  1.0000 -0.5325249682
O   O64       1.0  0.07368  0.84029  0.32680  1.0000 -0.5325249682
O   O65       1.0  0.34029  0.17320  0.92632  1.0000 -0.5325249682
O   O66       1.0  0.34029  0.82680  0.57368  1.0000 -0.5325249682
O   O67       1.0  0.84029  0.67320  0.42632  1.0000 -0.5325249682
O   O68       1.0  0.84029  0.32680  0.07368  1.0000 -0.5325249682
O   O69       1.0  0.82680  0.42632  0.15971  1.0000 -0.5325249682
O   O70       1.0  0.82680  0.57368  0.34029  1.0000 -0.5325249682
O   O71       1.0  0.32680  0.92632  0.65971  1.0000 -0.5325249682
O   O72       1.0  0.32680  0.07368  0.84029  1.0000 -0.5325249682
O   O73       1.0  0.43291  0.56851  0.39170  1.0000 -0.3026537138
O   O74       1.0  0.43291  0.43149  0.10830  1.0000 -0.3026537138
O   O75       1.0  0.93291  0.06851  0.89170  1.0000 -0.3026537138
O   O76       1.0  0.93291  0.93149  0.60830  1.0000 -0.3026537138
O   O77       1.0  0.06851  0.10830  0.56709  1.0000 -0.3026537138
O   O78       1.0  0.06851  0.89170  0.93291  1.0000 -0.3026537138
O   O79       1.0  0.56851  0.60830  0.06709  1.0000 -0.3026537138
O   O80       1.0  0.56851  0.39170  0.43291  1.0000 -0.3026537138
O   O81       1.0  0.60830  0.93291  0.93149  1.0000 -0.3026537138
O   O82       1.0  0.60830  0.06709  0.56851  1.0000 -0.3026537138
O   O83       1.0  0.10830  0.43291  0.43149  1.0000 -0.3026537138
O   O84       1.0  0.10830  0.56709  0.06851  1.0000 -0.3026537138
O   O85       1.0  0.39170  0.43291  0.56851  1.0000 -0.3026537138
O   O86       1.0  0.39170  0.56709  0.93149  1.0000 -0.3026537138
O   O87       1.0  0.89170  0.93291  0.06851  1.0000 -0.3026537138
O   O88       1.0  0.89170  0.06709  0.43149  1.0000 -0.3026537138
O   O89       1.0  0.93149  0.60830  0.93291  1.0000 -0.3026537138
O   O90       1.0  0.93149  0.39170  0.56709  1.0000 -0.3026537138
O   O91       1.0  0.43149  0.10830  0.43291  1.0000 -0.3026537138
O   O92       1.0  0.43149  0.89170  0.06709  1.0000 -0.3026537138
O   O93       1.0  0.56709  0.06851  0.10830  1.0000 -0.3026537138
O   O94       1.0  0.56709  0.93149  0.39170  1.0000 -0.3026537138
O   O95       1.0  0.06709  0.56851  0.60830  1.0000 -0.3026537138
O   O96       1.0  0.06709  0.43149  0.89170  1.0000 -0.3026537138
O   O97       1.0  0.41361  0.47910  0.40600  1.0000 -0.4436032418
O   O98       1.0  0.41361  0.52090  0.09400  1.0000 -0.4436032418
O   O99       1.0  0.91361  0.97910  0.90600  1.0000 -0.4436032418
O   O100      1.0  0.91361  0.02090  0.59400  1.0000 -0.4436032418
O   O101      1.0  0.97910  0.09400  0.58639  1.0000 -0.4436032418
O   O102      1.0  0.97910  0.90600  0.91361  1.0000 -0.4436032418
O   O103      1.0  0.47910  0.59400  0.08638  1.0000 -0.4436032418
O   O104      1.0  0.47910  0.40600  0.41361  1.0000 -0.4436032418
O   O105      1.0  0.59400  0.91361  0.02090  1.0000 -0.4436032418
O   O106      1.0  0.59400  0.08638  0.47910  1.0000 -0.4436032418
O   O107      1.0  0.09400  0.41361  0.52090  1.0000 -0.4436032418
O   O108      1.0  0.09400  0.58639  0.97910  1.0000 -0.4436032418
O   O109      1.0  0.40600  0.41361  0.47910  1.0000 -0.4436032418
O   O110      1.0  0.40600  0.58639  0.02090  1.0000 -0.4436032418
O   O111      1.0  0.90600  0.91361  0.97910  1.0000 -0.4436032418
O   O112      1.0  0.90600  0.08638  0.52090  1.0000 -0.4436032418
O   O113      1.0  0.02090  0.59400  0.91361  1.0000 -0.4436032418
O   O114      1.0  0.02090  0.40600  0.58639  1.0000 -0.4436032418
O   O115      1.0  0.52090  0.09400  0.41361  1.0000 -0.4436032418
O   O116      1.0  0.52090  0.90600  0.08638  1.0000 -0.4436032418
O   O117      1.0  0.58639  0.97910  0.09400  1.0000 -0.4436032418
O   O118      1.0  0.58639  0.02090  0.40600  1.0000 -0.4436032418
O   O119      1.0  0.08638  0.47910  0.59400  1.0000 -0.4436032418
O   O120      1.0  0.08638  0.52090  0.90600  1.0000 -0.4436032418
O   O121      1.0  0.42320  0.40971  0.32368  1.0000 -0.5325249682
O   O122      1.0  0.42320  0.59029  0.17632  1.0000 -0.5325249682
O   O123      1.0  0.92320  0.90971  0.82368  1.0000 -0.5325249682
O   O124      1.0  0.92320  0.09029  0.67632  1.0000 -0.5325249682
O   O125      1.0  0.90971  0.17632  0.57680  1.0000 -0.5325249682
O   O126      1.0  0.90971  0.82368  0.92320  1.0000 -0.5325249682
O   O127      1.0  0.40971  0.67632  0.07680  1.0000 -0.5325249682
O   O128      1.0  0.40971  0.32368  0.42320  1.0000 -0.5325249682
O   O129      1.0  0.67632  0.92320  0.09029  1.0000 -0.5325249682
O   O130      1.0  0.67632  0.07680  0.40971  1.0000 -0.5325249682
O   O131      1.0  0.17632  0.42320  0.59029  1.0000 -0.5325249682
O   O132      1.0  0.17632  0.57680  0.90971  1.0000 -0.5325249682
O   O133      1.0  0.32368  0.42320  0.40971  1.0000 -0.5325249682
O   O134      1.0  0.32368  0.57680  0.09029  1.0000 -0.5325249682
O   O135      1.0  0.82368  0.92320  0.90971  1.0000 -0.5325249682
O   O136      1.0  0.82368  0.07680  0.59029  1.0000 -0.5325249682
O   O137      1.0  0.09029  0.67632  0.92320  1.0000 -0.5325249682
O   O138      1.0  0.09029  0.32368  0.57680  1.0000 -0.5325249682
O   O139      1.0  0.59029  0.17632  0.42320  1.0000 -0.5325249682
O   O140      1.0  0.59029  0.82368  0.07680  1.0000 -0.5325249682
O   O141      1.0  0.57680  0.90971  0.17632  1.0000 -0.5325249682
O   O142      1.0  0.57680  0.09029  0.32368  1.0000 -0.5325249682
O   O143      1.0  0.07680  0.40971  0.67632  1.0000 -0.5325249682
O   O144      1.0  0.07680  0.59029  0.82368  1.0000 -0.5325249682
