# DDEC6 charges by PACMAN v1.1 (https://github.com/mtap-research/PACMAN-charge/)
data_aav4119_data_file_s2_ASR_pacman
_symmetry_space_group_name_H-M   'P 1'
_cell_length_a   30.22100000
_cell_length_b   30.22100000
_cell_length_c   34.46000000
_cell_angle_alpha   90.00000000
_cell_angle_beta   90.00000000
_cell_angle_gamma   90.00000000
_symmetry_Int_Tables_number   1
_chemical_formula_structural   Zn44.0H332.8C632N59.2O120
_chemical_formula_sum   'Zn44.0 H332.8 C632 N59.2 O120'
_cell_volume   31472.62266086
_cell_formula_units_Z   1
loop_
 _symmetry_equiv_pos_site_id
 _symmetry_equiv_pos_as_xyz
  1  'x, y, z'
loop_
 _atom_site_type_symbol
 _atom_site_label
 _atom_site_symmetry_multiplicity
 _atom_site_fract_x
 _atom_site_fract_y
 _atom_site_fract_z
 _atom_site_occupancy
 _atom_site_charge
Zn  Zn1  1  0.90371000  0.66460000  0.27348000  1.0 0.9778046741
Zn  Zn2  1  0.09629000  0.33540000  0.27348000  1.0 0.973621423
Zn  Zn3  1  0.33540000  0.90371000  0.27348000  1.0 0.973621423
Zn  Zn4  1  0.66460000  0.09629000  0.27348000  1.0 0.973621423
Zn  Zn5  1  0.59629000  0.16460000  0.22652000  1.0 0.973621423
Zn  Zn6  1  0.40371000  0.83540000  0.22652000  1.0 0.973621423
Zn  Zn7  1  0.16460000  0.40371000  0.22652000  1.0 0.973621423
Zn  Zn8  1  0.83540000  0.59629000  0.22652000  1.0 0.973621423
Zn  Zn9  1  0.09629000  0.33540000  0.72652000  1.0 0.9778046741
Zn  Zn10  1  0.90371000  0.66460000  0.72652000  1.0 0.9778046741
Zn  Zn11  1  0.66460000  0.09629000  0.72652000  1.0 0.973621423
Zn  Zn12  1  0.33540000  0.90371000  0.72652000  1.0 0.973621423
Zn  Zn13  1  0.40371000  0.83540000  0.77348000  1.0 0.973621423
Zn  Zn14  1  0.59629000  0.16460000  0.77348000  1.0 0.973621423
Zn  Zn15  1  0.83540000  0.59629000  0.77348000  1.0 0.973621423
Zn  Zn16  1  0.16460000  0.40371000  0.77348000  1.0 0.973621423
Zn  Zn17  1  0.00000000  0.00000000  0.16529000  1.0 0.5985193386
Zn  Zn18  1  0.50000000  0.50000000  0.33471000  1.0 0.5985193386
Zn  Zn19  1  0.00000000  0.00000000  0.83471000  1.0 0.5985193386
Zn  Zn20  1  0.50000000  0.50000000  0.66529000  1.0 0.5985193386
Zn  Zn21  1  0.16691000  0.70326000  0.50000000  1.0 0.6371791571
Zn  Zn22  1  0.83309000  0.29674000  0.50000000  1.0 0.6371791571
Zn  Zn23  1  0.29674000  0.16691000  0.50000000  1.0 0.6371791571
Zn  Zn24  1  0.70326000  0.83309000  0.50000000  1.0 0.6371791571
Zn  Zn25  1  0.33309000  0.20326000  0.00000000  1.0 0.6371791571
Zn  Zn26  1  0.66691000  0.79674000  0.00000000  1.0 0.6371791571
Zn  Zn27  1  0.20326000  0.66691000  0.00000000  1.0 0.6371791571
Zn  Zn28  1  0.79674000  0.33309000  0.00000000  1.0 0.6371791571
Zn  Zn29  1  0.94349000  0.75760000  0.33469000  0.45 0.5040092687
Zn  Zn30  1  0.05651000  0.24240000  0.33469000  0.45 0.5080165125
Zn  Zn31  1  0.24240000  0.94349000  0.33469000  0.45 0.5080165125
Zn  Zn32  1  0.75760000  0.05651000  0.33469000  0.45 0.5080165125
Zn  Zn33  1  0.55651000  0.25760000  0.16531000  0.45 0.5040092687
Zn  Zn34  1  0.44349000  0.74240000  0.16531000  0.45 0.5080165125
Zn  Zn35  1  0.25760000  0.44349000  0.16531000  0.45 0.5040092687
Zn  Zn36  1  0.74240000  0.55651000  0.16531000  0.45 0.5080165125
Zn  Zn37  1  0.05651000  0.24240000  0.66531000  0.45 0.5080165125
Zn  Zn38  1  0.94349000  0.75760000  0.66531000  0.45 0.5040092687
Zn  Zn39  1  0.75760000  0.05651000  0.66531000  0.45 0.5080165125
Zn  Zn40  1  0.24240000  0.94349000  0.66531000  0.45 0.5080165125
Zn  Zn41  1  0.44349000  0.74240000  0.83469000  0.45 0.5080165125
Zn  Zn42  1  0.55651000  0.25760000  0.83469000  0.45 0.5040092687
Zn  Zn43  1  0.74240000  0.55651000  0.83469000  0.45 0.5040092687
Zn  Zn44  1  0.25760000  0.44349000  0.83469000  0.45 0.5040092687
Zn  Zn45  1  0.91268000  0.76185000  0.32391000  0.55 0.5225648318
Zn  Zn46  1  0.08732000  0.23815000  0.32391000  0.55 0.5080165125
Zn  Zn47  1  0.23815000  0.91268000  0.32391000  0.55 0.5225648318
Zn  Zn48  1  0.76185000  0.08732000  0.32391000  0.55 0.5080165125
Zn  Zn49  1  0.58732000  0.26185000  0.17609000  0.55 0.5225648318
Zn  Zn50  1  0.41268000  0.73815000  0.17609000  0.55 0.5225648318
Zn  Zn51  1  0.26185000  0.41268000  0.17609000  0.55 0.5225648318
Zn  Zn52  1  0.73815000  0.58732000  0.17609000  0.55 0.5225648318
Zn  Zn53  1  0.08732000  0.23815000  0.67609000  0.55 0.5080165125
Zn  Zn54  1  0.91268000  0.76185000  0.67609000  0.55 0.5225648318
Zn  Zn55  1  0.76185000  0.08732000  0.67609000  0.55 0.5080165125
Zn  Zn56  1  0.23815000  0.91268000  0.67609000  0.55 0.5225648318
Zn  Zn57  1  0.41268000  0.73815000  0.82391000  0.55 0.5225648318
Zn  Zn58  1  0.58732000  0.26185000  0.82391000  0.55 0.5225648318
Zn  Zn59  1  0.73815000  0.58732000  0.82391000  0.55 0.5225648318
Zn  Zn60  1  0.26185000  0.41268000  0.82391000  0.55 0.5225648318
H  H1  1  0.84070000  0.93980000  0.17850000  1.0 0.1292140675
H  H2  1  0.88550000  0.87420000  0.17570000  1.0 0.1292140675
H  H3  1  0.98510000  0.83270000  0.11760000  1.0 0.1195476068
H  H4  1  0.97170000  0.75690000  0.11370000  1.0 0.1195476068
H  H5  1  0.94940000  0.71800000  0.16870000  1.0 0.1292140675
H  H6  1  0.95400000  0.83060000  0.23140000  1.0 0.1352558041
H  H7  1  0.99800000  0.58890000  0.32440000  1.0 0.1292140675
H  H8  1  0.05220000  0.54880000  0.35710000  1.0 0.1195476068
H  H9  1  0.09540000  0.58320000  0.40430000  1.0 0.1195476068
H  H10  1  0.03010000  0.69780000  0.38610000  1.0 0.1292140675
H  H11  1  0.02330000  0.62490000  0.46260000  1.0 0.1195476068
H  H12  1  0.13220000  0.67910000  0.35550000  1.0 0.1292140675
H  H13  1  0.20410000  0.71270000  0.35420000  1.0 0.1352558041
H  H14  1  0.31560000  0.77430000  0.46670000  1.0 0.1292140675
H  H15  1  0.78300000  0.64370000  0.32520000  1.0 0.1195476068
H  H16  1  0.71760000  0.63550000  0.36040000  1.0 0.1112069272
H  H17  1  0.69840000  0.68770000  0.40720000  1.0 0.1195476068
H  H18  1  0.80980000  0.75630000  0.38360000  1.0 0.1292140675
H  H19  1  0.15930000  0.06020000  0.17850000  1.0 0.1292140675
H  H20  1  0.11450000  0.12580000  0.17570000  1.0 0.1292140675
H  H21  1  0.01490000  0.16730000  0.11760000  1.0 0.1195476068
H  H22  1  0.02830000  0.24310000  0.11370000  1.0 0.1195476068
H  H23  1  0.05060000  0.28200000  0.16870000  1.0 0.1292140675
H  H24  1  0.04600000  0.16940000  0.23140000  1.0 0.1352558041
H  H25  1  0.00200000  0.41110000  0.32440000  1.0 0.1292140675
H  H26  1  0.94780000  0.45120000  0.35710000  1.0 0.1195476068
H  H27  1  0.90460000  0.41680000  0.40430000  1.0 0.1195476068
H  H28  1  0.96990000  0.30220000  0.38610000  1.0 0.1292140675
H  H29  1  0.97670000  0.37510000  0.46260000  1.0 0.1195476068
H  H30  1  0.86780000  0.32090000  0.35550000  1.0 0.1292140675
H  H31  1  0.79590000  0.28730000  0.35420000  1.0 0.1352558041
H  H32  1  0.68440000  0.22570000  0.46670000  1.0 0.1292140675
H  H33  1  0.21700000  0.35630000  0.32520000  1.0 0.1195476068
H  H34  1  0.28240000  0.36450000  0.36040000  1.0 0.1112069272
H  H35  1  0.30160000  0.31230000  0.40720000  1.0 0.1195476068
H  H36  1  0.19020000  0.24370000  0.38360000  1.0 0.1292140675
H  H37  1  0.06020000  0.84070000  0.17850000  1.0 0.1292140675
H  H38  1  0.12580000  0.88550000  0.17570000  1.0 0.1292140675
H  H39  1  0.16730000  0.98510000  0.11760000  1.0 0.1195476068
H  H40  1  0.24310000  0.97170000  0.11370000  1.0 0.1195476068
H  H41  1  0.28200000  0.94940000  0.16870000  1.0 0.1292140675
H  H42  1  0.16940000  0.95400000  0.23140000  1.0 0.1352558041
H  H43  1  0.41110000  0.99800000  0.32440000  1.0 0.1292140675
H  H44  1  0.45120000  0.05220000  0.35710000  1.0 0.1195476068
H  H45  1  0.41680000  0.09540000  0.40430000  1.0 0.1195476068
H  H46  1  0.30220000  0.03010000  0.38610000  1.0 0.1292140675
H  H47  1  0.37510000  0.02330000  0.46260000  1.0 0.1195476068
H  H48  1  0.32090000  0.13220000  0.35550000  1.0 0.1292140675
H  H49  1  0.28730000  0.20410000  0.35420000  1.0 0.1352558041
H  H50  1  0.22570000  0.31560000  0.46670000  1.0 0.1292140675
H  H51  1  0.35630000  0.78300000  0.32520000  1.0 0.1195476068
H  H52  1  0.36450000  0.71760000  0.36040000  1.0 0.1112069272
H  H53  1  0.31230000  0.69840000  0.40720000  1.0 0.1195476068
H  H54  1  0.24370000  0.80980000  0.38360000  1.0 0.1292140675
H  H55  1  0.93980000  0.15930000  0.17850000  1.0 0.1292140675
H  H56  1  0.87420000  0.11450000  0.17570000  1.0 0.1292140675
H  H57  1  0.83270000  0.01490000  0.11760000  1.0 0.1195476068
H  H58  1  0.75690000  0.02830000  0.11370000  1.0 0.1195476068
H  H59  1  0.71800000  0.05060000  0.16870000  1.0 0.1292140675
H  H60  1  0.83060000  0.04600000  0.23140000  1.0 0.1352558041
H  H61  1  0.58890000  0.00200000  0.32440000  1.0 0.1292140675
H  H62  1  0.54880000  0.94780000  0.35710000  1.0 0.1195476068
H  H63  1  0.58320000  0.90460000  0.40430000  1.0 0.1195476068
H  H64  1  0.69780000  0.96990000  0.38610000  1.0 0.1292140675
H  H65  1  0.62490000  0.97670000  0.46260000  1.0 0.1195476068
H  H66  1  0.67910000  0.86780000  0.35550000  1.0 0.1292140675
H  H67  1  0.71270000  0.79590000  0.35420000  1.0 0.1352558041
H  H68  1  0.77430000  0.68440000  0.46670000  1.0 0.1292140675
H  H69  1  0.64370000  0.21700000  0.32520000  1.0 0.1195476068
H  H70  1  0.63550000  0.28240000  0.36040000  1.0 0.1112069272
H  H71  1  0.68770000  0.30160000  0.40720000  1.0 0.1195476068
H  H72  1  0.75630000  0.19020000  0.38360000  1.0 0.1292140675
H  H73  1  0.65930000  0.43980000  0.32150000  1.0 0.1292140675
H  H74  1  0.61450000  0.37420000  0.32430000  1.0 0.1292140675
H  H75  1  0.51490000  0.33270000  0.38240000  1.0 0.1195476068
H  H76  1  0.52830000  0.25690000  0.38630000  1.0 0.1112069272
H  H77  1  0.55060000  0.21800000  0.33130000  1.0 0.1292140675
H  H78  1  0.54600000  0.33060000  0.26860000  1.0 0.1352558041
H  H79  1  0.50200000  0.08890000  0.17560000  1.0 0.1292140675
H  H80  1  0.44780000  0.04880000  0.14290000  1.0 0.1195476068
H  H81  1  0.40460000  0.08320000  0.09570000  1.0 0.1195476068
H  H82  1  0.46990000  0.19780000  0.11390000  1.0 0.1292140675
H  H83  1  0.47670000  0.12490000  0.03740000  1.0 0.1195476068
H  H84  1  0.36780000  0.17910000  0.14450000  1.0 0.1292140675
H  H85  1  0.29590000  0.21270000  0.14580000  1.0 0.1352558041
H  H86  1  0.18440000  0.27430000  0.03330000  1.0 0.1292140675
H  H87  1  0.71700000  0.14370000  0.17480000  1.0 0.1195476068
H  H88  1  0.78240000  0.13550000  0.13960000  1.0 0.1112069272
H  H89  1  0.80160000  0.18770000  0.09280000  1.0 0.1195476068
H  H90  1  0.69020000  0.25630000  0.11640000  1.0 0.1292140675
H  H91  1  0.34070000  0.56020000  0.32150000  1.0 0.1292140675
H  H92  1  0.38550000  0.62580000  0.32430000  1.0 0.1292140675
H  H93  1  0.48510000  0.66730000  0.38240000  1.0 0.1195476068
H  H94  1  0.47170000  0.74310000  0.38630000  1.0 0.1195476068
H  H95  1  0.44940000  0.78200000  0.33130000  1.0 0.1292140675
H  H96  1  0.45400000  0.66940000  0.26860000  1.0 0.1352558041
H  H97  1  0.49800000  0.91110000  0.17560000  1.0 0.1292140675
H  H98  1  0.55220000  0.95120000  0.14290000  1.0 0.1195476068
H  H99  1  0.59540000  0.91680000  0.09570000  1.0 0.1195476068
H  H100  1  0.53010000  0.80220000  0.11390000  1.0 0.1292140675
H  H101  1  0.52330000  0.87510000  0.03740000  1.0 0.1195476068
H  H102  1  0.63220000  0.82090000  0.14450000  1.0 0.1292140675
H  H103  1  0.70410000  0.78730000  0.14580000  1.0 0.1352558041
H  H104  1  0.81560000  0.72570000  0.03330000  1.0 0.1292140675
H  H105  1  0.28300000  0.85630000  0.17480000  1.0 0.1195476068
H  H106  1  0.21760000  0.86450000  0.13960000  1.0 0.1112069272
H  H107  1  0.19840000  0.81230000  0.09280000  1.0 0.1195476068
H  H108  1  0.30980000  0.74370000  0.11640000  1.0 0.1292140675
H  H109  1  0.43980000  0.34070000  0.32150000  1.0 0.1292140675
H  H110  1  0.37420000  0.38550000  0.32430000  1.0 0.1292140675
H  H111  1  0.33270000  0.48510000  0.38240000  1.0 0.1195476068
H  H112  1  0.25690000  0.47170000  0.38630000  1.0 0.1112069272
H  H113  1  0.21800000  0.44940000  0.33130000  1.0 0.1292140675
H  H114  1  0.33060000  0.45400000  0.26860000  1.0 0.1352558041
H  H115  1  0.08890000  0.49800000  0.17560000  1.0 0.1292140675
H  H116  1  0.04880000  0.55220000  0.14290000  1.0 0.1195476068
H  H117  1  0.08320000  0.59540000  0.09570000  1.0 0.1195476068
H  H118  1  0.19780000  0.53010000  0.11390000  1.0 0.1292140675
H  H119  1  0.12490000  0.52330000  0.03740000  1.0 0.1195476068
H  H120  1  0.17910000  0.63220000  0.14450000  1.0 0.1292140675
H  H121  1  0.21270000  0.70410000  0.14580000  1.0 0.1352558041
H  H122  1  0.27430000  0.81560000  0.03330000  1.0 0.1292140675
H  H123  1  0.14370000  0.28300000  0.17480000  1.0 0.1195476068
H  H124  1  0.13550000  0.21760000  0.13960000  1.0 0.1112069272
H  H125  1  0.18770000  0.19840000  0.09280000  1.0 0.1195476068
H  H126  1  0.25630000  0.30980000  0.11640000  1.0 0.1292140675
H  H127  1  0.56020000  0.65930000  0.32150000  1.0 0.1292140675
H  H128  1  0.62580000  0.61450000  0.32430000  1.0 0.1292140675
H  H129  1  0.66730000  0.51490000  0.38240000  1.0 0.1195476068
H  H130  1  0.74310000  0.52830000  0.38630000  1.0 0.1195476068
H  H131  1  0.78200000  0.55060000  0.33130000  1.0 0.1292140675
H  H132  1  0.66940000  0.54600000  0.26860000  1.0 0.1352558041
H  H133  1  0.91110000  0.50200000  0.17560000  1.0 0.1292140675
H  H134  1  0.95120000  0.44780000  0.14290000  1.0 0.1195476068
H  H135  1  0.91680000  0.40460000  0.09570000  1.0 0.1195476068
H  H136  1  0.80220000  0.46990000  0.11390000  1.0 0.1292140675
H  H137  1  0.87510000  0.47670000  0.03740000  1.0 0.1195476068
H  H138  1  0.82090000  0.36780000  0.14450000  1.0 0.1292140675
H  H139  1  0.78730000  0.29590000  0.14580000  1.0 0.1352558041
H  H140  1  0.72570000  0.18440000  0.03330000  1.0 0.1292140675
H  H141  1  0.85630000  0.71700000  0.17480000  1.0 0.1195476068
H  H142  1  0.86450000  0.78240000  0.13960000  1.0 0.1112069272
H  H143  1  0.81230000  0.80160000  0.09280000  1.0 0.1195476068
H  H144  1  0.74370000  0.69020000  0.11640000  1.0 0.1292140675
H  H145  1  0.15930000  0.06020000  0.82150000  1.0 0.1292140675
H  H146  1  0.11450000  0.12580000  0.82430000  1.0 0.1292140675
H  H147  1  0.01490000  0.16730000  0.88240000  1.0 0.1195476068
H  H148  1  0.02830000  0.24310000  0.88630000  1.0 0.1195476068
H  H149  1  0.05060000  0.28200000  0.83130000  1.0 0.1292140675
H  H150  1  0.04600000  0.16940000  0.76860000  1.0 0.1352558041
H  H151  1  0.00200000  0.41110000  0.67560000  1.0 0.1292140675
H  H152  1  0.94780000  0.45120000  0.64290000  1.0 0.1195476068
H  H153  1  0.90460000  0.41680000  0.59570000  1.0 0.1195476068
H  H154  1  0.96990000  0.30220000  0.61390000  1.0 0.1292140675
H  H155  1  0.97670000  0.37510000  0.53740000  1.0 0.1195476068
H  H156  1  0.86780000  0.32090000  0.64450000  1.0 0.1292140675
H  H157  1  0.79590000  0.28730000  0.64580000  1.0 0.1352558041
H  H158  1  0.68440000  0.22570000  0.53330000  1.0 0.1292140675
H  H159  1  0.21700000  0.35630000  0.67480000  1.0 0.1195476068
H  H160  1  0.28240000  0.36450000  0.63960000  1.0 0.1112069272
H  H161  1  0.30160000  0.31230000  0.59280000  1.0 0.1195476068
H  H162  1  0.19020000  0.24370000  0.61640000  1.0 0.1292140675
H  H163  1  0.84070000  0.93980000  0.82150000  1.0 0.1292140675
H  H164  1  0.88550000  0.87420000  0.82430000  1.0 0.1292140675
H  H165  1  0.98510000  0.83270000  0.88240000  1.0 0.1195476068
H  H166  1  0.97170000  0.75690000  0.88630000  1.0 0.1195476068
H  H167  1  0.94940000  0.71800000  0.83130000  1.0 0.1292140675
H  H168  1  0.95400000  0.83060000  0.76860000  1.0 0.1352558041
H  H169  1  0.99800000  0.58890000  0.67560000  1.0 0.1292140675
H  H170  1  0.05220000  0.54880000  0.64290000  1.0 0.1195476068
H  H171  1  0.09540000  0.58320000  0.59570000  1.0 0.1195476068
H  H172  1  0.03010000  0.69780000  0.61390000  1.0 0.1292140675
H  H173  1  0.02330000  0.62490000  0.53740000  1.0 0.1195476068
H  H174  1  0.13220000  0.67910000  0.64450000  1.0 0.1292140675
H  H175  1  0.20410000  0.71270000  0.64580000  1.0 0.1352558041
H  H176  1  0.31560000  0.77430000  0.53330000  1.0 0.1292140675
H  H177  1  0.78300000  0.64370000  0.67480000  1.0 0.1195476068
H  H178  1  0.71760000  0.63550000  0.63960000  1.0 0.1112069272
H  H179  1  0.69840000  0.68770000  0.59280000  1.0 0.1195476068
H  H180  1  0.80980000  0.75630000  0.61640000  1.0 0.1292140675
H  H181  1  0.93980000  0.15930000  0.82150000  1.0 0.1292140675
H  H182  1  0.87420000  0.11450000  0.82430000  1.0 0.1292140675
H  H183  1  0.83270000  0.01490000  0.88240000  1.0 0.1195476068
H  H184  1  0.75690000  0.02830000  0.88630000  1.0 0.1195476068
H  H185  1  0.71800000  0.05060000  0.83130000  1.0 0.1292140675
H  H186  1  0.83060000  0.04600000  0.76860000  1.0 0.1352558041
H  H187  1  0.58890000  0.00200000  0.67560000  1.0 0.1292140675
H  H188  1  0.54880000  0.94780000  0.64290000  1.0 0.1195476068
H  H189  1  0.58320000  0.90460000  0.59570000  1.0 0.1195476068
H  H190  1  0.69780000  0.96990000  0.61390000  1.0 0.1292140675
H  H191  1  0.62490000  0.97670000  0.53740000  1.0 0.1195476068
H  H192  1  0.67910000  0.86780000  0.64450000  1.0 0.1292140675
H  H193  1  0.71270000  0.79590000  0.64580000  1.0 0.1352558041
H  H194  1  0.77430000  0.68440000  0.53330000  1.0 0.1292140675
H  H195  1  0.64370000  0.21700000  0.67480000  1.0 0.1195476068
H  H196  1  0.63550000  0.28240000  0.63960000  1.0 0.1112069272
H  H197  1  0.68770000  0.30160000  0.59280000  1.0 0.1195476068
H  H198  1  0.75630000  0.19020000  0.61640000  1.0 0.1292140675
H  H199  1  0.06020000  0.84070000  0.82150000  1.0 0.1292140675
H  H200  1  0.12580000  0.88550000  0.82430000  1.0 0.1292140675
H  H201  1  0.16730000  0.98510000  0.88240000  1.0 0.1195476068
H  H202  1  0.24310000  0.97170000  0.88630000  1.0 0.1195476068
H  H203  1  0.28200000  0.94940000  0.83130000  1.0 0.1292140675
H  H204  1  0.16940000  0.95400000  0.76860000  1.0 0.1352558041
H  H205  1  0.41110000  0.99800000  0.67560000  1.0 0.1292140675
H  H206  1  0.45120000  0.05220000  0.64290000  1.0 0.1195476068
H  H207  1  0.41680000  0.09540000  0.59570000  1.0 0.1195476068
H  H208  1  0.30220000  0.03010000  0.61390000  1.0 0.1292140675
H  H209  1  0.37510000  0.02330000  0.53740000  1.0 0.1195476068
H  H210  1  0.32090000  0.13220000  0.64450000  1.0 0.1292140675
H  H211  1  0.28730000  0.20410000  0.64580000  1.0 0.1352558041
H  H212  1  0.22570000  0.31560000  0.53330000  1.0 0.1292140675
H  H213  1  0.35630000  0.78300000  0.67480000  1.0 0.1195476068
H  H214  1  0.36450000  0.71760000  0.63960000  1.0 0.1112069272
H  H215  1  0.31230000  0.69840000  0.59280000  1.0 0.1195476068
H  H216  1  0.24370000  0.80980000  0.61640000  1.0 0.1292140675
H  H217  1  0.34070000  0.56020000  0.67850000  1.0 0.1292140675
H  H218  1  0.38550000  0.62580000  0.67570000  1.0 0.1292140675
H  H219  1  0.48510000  0.66730000  0.61760000  1.0 0.1195476068
H  H220  1  0.47170000  0.74310000  0.61370000  1.0 0.1195476068
H  H221  1  0.44940000  0.78200000  0.66870000  1.0 0.1292140675
H  H222  1  0.45400000  0.66940000  0.73140000  1.0 0.1352558041
H  H223  1  0.49800000  0.91110000  0.82440000  1.0 0.1292140675
H  H224  1  0.55220000  0.95120000  0.85710000  1.0 0.1195476068
H  H225  1  0.59540000  0.91680000  0.90430000  1.0 0.1195476068
H  H226  1  0.53010000  0.80220000  0.88610000  1.0 0.1292140675
H  H227  1  0.52330000  0.87510000  0.96260000  1.0 0.1195476068
H  H228  1  0.63220000  0.82090000  0.85550000  1.0 0.1292140675
H  H229  1  0.70410000  0.78730000  0.85420000  1.0 0.1352558041
H  H230  1  0.81560000  0.72570000  0.96670000  1.0 0.1292140675
H  H231  1  0.28300000  0.85630000  0.82520000  1.0 0.1195476068
H  H232  1  0.21760000  0.86450000  0.86040000  1.0 0.1112069272
H  H233  1  0.19840000  0.81230000  0.90720000  1.0 0.1195476068
H  H234  1  0.30980000  0.74370000  0.88360000  1.0 0.1292140675
H  H235  1  0.65930000  0.43980000  0.67850000  1.0 0.1292140675
H  H236  1  0.61450000  0.37420000  0.67570000  1.0 0.1292140675
H  H237  1  0.51490000  0.33270000  0.61760000  1.0 0.1195476068
H  H238  1  0.52830000  0.25690000  0.61370000  1.0 0.1112069272
H  H239  1  0.55060000  0.21800000  0.66870000  1.0 0.1292140675
H  H240  1  0.54600000  0.33060000  0.73140000  1.0 0.1352558041
H  H241  1  0.50200000  0.08890000  0.82440000  1.0 0.1292140675
H  H242  1  0.44780000  0.04880000  0.85710000  1.0 0.1195476068
H  H243  1  0.40460000  0.08320000  0.90430000  1.0 0.1195476068
H  H244  1  0.46990000  0.19780000  0.88610000  1.0 0.1292140675
H  H245  1  0.47670000  0.12490000  0.96260000  1.0 0.1195476068
H  H246  1  0.36780000  0.17910000  0.85550000  1.0 0.1292140675
H  H247  1  0.29590000  0.21270000  0.85420000  1.0 0.1352558041
H  H248  1  0.18440000  0.27430000  0.96670000  1.0 0.1292140675
H  H249  1  0.71700000  0.14370000  0.82520000  1.0 0.1195476068
H  H250  1  0.78240000  0.13550000  0.86040000  1.0 0.1112069272
H  H251  1  0.80160000  0.18770000  0.90720000  1.0 0.1195476068
H  H252  1  0.69020000  0.25630000  0.88360000  1.0 0.1292140675
H  H253  1  0.56020000  0.65930000  0.67850000  1.0 0.1292140675
H  H254  1  0.62580000  0.61450000  0.67570000  1.0 0.1292140675
H  H255  1  0.66730000  0.51490000  0.61760000  1.0 0.1195476068
H  H256  1  0.74310000  0.52830000  0.61370000  1.0 0.1195476068
H  H257  1  0.78200000  0.55060000  0.66870000  1.0 0.1292140675
H  H258  1  0.66940000  0.54600000  0.73140000  1.0 0.1352558041
H  H259  1  0.91110000  0.50200000  0.82440000  1.0 0.1292140675
H  H260  1  0.95120000  0.44780000  0.85710000  1.0 0.1195476068
H  H261  1  0.91680000  0.40460000  0.90430000  1.0 0.1195476068
H  H262  1  0.80220000  0.46990000  0.88610000  1.0 0.1292140675
H  H263  1  0.87510000  0.47670000  0.96260000  1.0 0.1195476068
H  H264  1  0.82090000  0.36780000  0.85550000  1.0 0.1292140675
H  H265  1  0.78730000  0.29590000  0.85420000  1.0 0.1352558041
H  H266  1  0.72570000  0.18440000  0.96670000  1.0 0.1292140675
H  H267  1  0.85630000  0.71700000  0.82520000  1.0 0.1195476068
H  H268  1  0.86450000  0.78240000  0.86040000  1.0 0.1112069272
H  H269  1  0.81230000  0.80160000  0.90720000  1.0 0.1195476068
H  H270  1  0.74370000  0.69020000  0.88360000  1.0 0.1292140675
H  H271  1  0.43980000  0.34070000  0.67850000  1.0 0.1292140675
H  H272  1  0.37420000  0.38550000  0.67570000  1.0 0.1292140675
H  H273  1  0.33270000  0.48510000  0.61760000  1.0 0.1195476068
H  H274  1  0.25690000  0.47170000  0.61370000  1.0 0.1112069272
H  H275  1  0.21800000  0.44940000  0.66870000  1.0 0.1292140675
H  H276  1  0.33060000  0.45400000  0.73140000  1.0 0.1352558041
H  H277  1  0.08890000  0.49800000  0.82440000  1.0 0.1292140675
H  H278  1  0.04880000  0.55220000  0.85710000  1.0 0.1195476068
H  H279  1  0.08320000  0.59540000  0.90430000  1.0 0.1195476068
H  H280  1  0.19780000  0.53010000  0.88610000  1.0 0.1292140675
H  H281  1  0.12490000  0.52330000  0.96260000  1.0 0.1195476068
H  H282  1  0.17910000  0.63220000  0.85550000  1.0 0.1292140675
H  H283  1  0.21270000  0.70410000  0.85420000  1.0 0.1352558041
H  H284  1  0.27430000  0.81560000  0.96670000  1.0 0.1292140675
H  H285  1  0.14370000  0.28300000  0.82520000  1.0 0.1195476068
H  H286  1  0.13550000  0.21760000  0.86040000  1.0 0.1112069272
H  H287  1  0.18770000  0.19840000  0.90720000  1.0 0.1195476068
H  H288  1  0.25630000  0.30980000  0.88360000  1.0 0.1292140675
H  H289  1  0.96820000  0.82380000  0.40420000  0.45 0.1112069272
H  H290  1  0.96640000  0.82350000  0.47180000  0.45 0.1112069272
H  H291  1  0.92070000  0.69800000  0.47040000  0.45 0.1292140675
H  H292  1  0.92240000  0.69840000  0.40280000  0.45 0.1019869354
H  H293  1  0.03180000  0.17620000  0.40420000  0.45 0.1112069272
H  H294  1  0.03360000  0.17650000  0.47180000  0.45 0.1112069272
H  H295  1  0.07930000  0.30200000  0.47040000  0.45 0.1292140675
H  H296  1  0.07760000  0.30160000  0.40280000  0.45 0.1019869354
H  H297  1  0.17620000  0.96820000  0.40420000  0.45 0.1112069272
H  H298  1  0.17650000  0.96640000  0.47180000  0.45 0.1112069272
H  H299  1  0.30200000  0.92070000  0.47040000  0.45 0.1292140675
H  H300  1  0.30160000  0.92240000  0.40280000  0.45 0.1019869354
H  H301  1  0.82380000  0.03180000  0.40420000  0.45 0.1112069272
H  H302  1  0.82350000  0.03360000  0.47180000  0.45 0.1112069272
H  H303  1  0.69800000  0.07930000  0.47040000  0.45 0.1292140675
H  H304  1  0.69840000  0.07760000  0.40280000  0.45 0.1019869354
H  H305  1  0.53180000  0.32380000  0.09580000  0.45 0.1112069272
H  H306  1  0.53360000  0.32350000  0.02820000  0.45 0.1112069272
H  H307  1  0.57930000  0.19800000  0.02960000  0.45 0.1292140675
H  H308  1  0.57760000  0.19840000  0.09720000  0.45 0.1019869354
H  H309  1  0.46820000  0.67620000  0.09580000  0.45 0.1112069272
H  H310  1  0.46640000  0.67650000  0.02820000  0.45 0.1112069272
H  H311  1  0.42070000  0.80200000  0.02960000  0.45 0.1292140675
H  H312  1  0.42240000  0.80160000  0.09720000  0.45 0.1019869354
H  H313  1  0.32380000  0.46820000  0.09580000  0.45 0.1112069272
H  H314  1  0.32350000  0.46640000  0.02820000  0.45 0.1112069272
H  H315  1  0.19800000  0.42070000  0.02960000  0.45 0.1292140675
H  H316  1  0.19840000  0.42240000  0.09720000  0.45 0.1019869354
H  H317  1  0.67620000  0.53180000  0.09580000  0.45 0.1112069272
H  H318  1  0.67650000  0.53360000  0.02820000  0.45 0.1112069272
H  H319  1  0.80200000  0.57930000  0.02960000  0.45 0.1292140675
H  H320  1  0.80160000  0.57760000  0.09720000  0.45 0.1019869354
H  H321  1  0.03180000  0.17620000  0.59580000  0.45 0.1112069272
H  H322  1  0.03360000  0.17650000  0.52820000  0.45 0.1112069272
H  H323  1  0.07930000  0.30200000  0.52960000  0.45 0.1292140675
H  H324  1  0.07760000  0.30160000  0.59720000  0.45 0.1019869354
H  H325  1  0.96820000  0.82380000  0.59580000  0.45 0.1112069272
H  H326  1  0.96640000  0.82350000  0.52820000  0.45 0.1112069272
H  H327  1  0.92070000  0.69800000  0.52960000  0.45 0.1292140675
H  H328  1  0.92240000  0.69840000  0.59720000  0.45 0.1019869354
H  H329  1  0.82380000  0.03180000  0.59580000  0.45 0.1112069272
H  H330  1  0.82350000  0.03360000  0.52820000  0.45 0.1112069272
H  H331  1  0.69800000  0.07930000  0.52960000  0.45 0.1292140675
H  H332  1  0.69840000  0.07760000  0.59720000  0.45 0.1019869354
H  H333  1  0.17620000  0.96820000  0.59580000  0.45 0.1112069272
H  H334  1  0.17650000  0.96640000  0.52820000  0.45 0.1112069272
H  H335  1  0.30200000  0.92070000  0.52960000  0.45 0.1292140675
H  H336  1  0.30160000  0.92240000  0.59720000  0.45 0.1019869354
H  H337  1  0.46820000  0.67620000  0.90420000  0.45 0.1112069272
H  H338  1  0.46640000  0.67650000  0.97180000  0.45 0.1112069272
H  H339  1  0.42070000  0.80200000  0.97040000  0.45 0.1292140675
H  H340  1  0.42240000  0.80160000  0.90280000  0.45 0.1019869354
H  H341  1  0.53180000  0.32380000  0.90420000  0.45 0.1112069272
H  H342  1  0.53360000  0.32350000  0.97180000  0.45 0.1112069272
H  H343  1  0.57930000  0.19800000  0.97040000  0.45 0.1292140675
H  H344  1  0.57760000  0.19840000  0.90280000  0.45 0.1019869354
H  H345  1  0.67620000  0.53180000  0.90420000  0.45 0.1112069272
H  H346  1  0.67650000  0.53360000  0.97180000  0.45 0.1112069272
H  H347  1  0.80200000  0.57930000  0.97040000  0.45 0.1292140675
H  H348  1  0.80160000  0.57760000  0.90280000  0.45 0.1019869354
H  H349  1  0.32380000  0.46820000  0.90420000  0.45 0.1112069272
H  H350  1  0.32350000  0.46640000  0.97180000  0.45 0.1112069272
H  H351  1  0.19800000  0.42070000  0.97040000  0.45 0.1292140675
H  H352  1  0.19840000  0.42240000  0.90280000  0.45 0.1019869354
H  H353  1  0.93650000  0.99090000  0.09590000  0.5 0.1019869354
H  H354  1  0.93340000  0.98990000  0.02930000  0.5 0.1019869354
H  H355  1  0.06350000  0.00910000  0.09590000  0.5 0.1019869354
H  H356  1  0.06660000  0.01010000  0.02930000  0.5 0.1019869354
H  H357  1  0.00910000  0.93650000  0.09590000  0.5 0.1019869354
H  H358  1  0.01010000  0.93340000  0.02930000  0.5 0.1019869354
H  H359  1  0.99090000  0.06350000  0.09590000  0.5 0.1019869354
H  H360  1  0.98990000  0.06660000  0.02930000  0.5 0.1019869354
H  H361  1  0.56350000  0.49090000  0.40410000  0.5 0.1019869354
H  H362  1  0.56660000  0.48990000  0.47070000  0.5 0.1019869354
H  H363  1  0.43650000  0.50910000  0.40410000  0.5 0.1019869354
H  H364  1  0.43340000  0.51010000  0.47070000  0.5 0.1019869354
H  H365  1  0.49090000  0.43650000  0.40410000  0.5 0.1019869354
H  H366  1  0.48990000  0.43340000  0.47070000  0.5 0.1019869354
H  H367  1  0.50910000  0.56350000  0.40410000  0.5 0.1019869354
H  H368  1  0.51010000  0.56660000  0.47070000  0.5 0.1019869354
H  H369  1  0.06350000  0.00910000  0.90410000  0.5 0.1019869354
H  H370  1  0.06660000  0.01010000  0.97070000  0.5 0.1019869354
H  H371  1  0.93650000  0.99090000  0.90410000  0.5 0.1019869354
H  H372  1  0.93340000  0.98990000  0.97070000  0.5 0.1019869354
H  H373  1  0.99090000  0.06350000  0.90410000  0.5 0.1019869354
H  H374  1  0.98990000  0.06660000  0.97070000  0.5 0.1019869354
H  H375  1  0.00910000  0.93650000  0.90410000  0.5 0.1019869354
H  H376  1  0.01010000  0.93340000  0.97070000  0.5 0.1019869354
H  H377  1  0.43650000  0.50910000  0.59590000  0.5 0.1019869354
H  H378  1  0.43340000  0.51010000  0.52930000  0.5 0.1019869354
H  H379  1  0.56350000  0.49090000  0.59590000  0.5 0.1019869354
H  H380  1  0.56660000  0.48990000  0.52930000  0.5 0.1019869354
H  H381  1  0.50910000  0.56350000  0.59590000  0.5 0.1019869354
H  H382  1  0.51010000  0.56660000  0.52930000  0.5 0.1019869354
H  H383  1  0.49090000  0.43650000  0.59590000  0.5 0.1019869354
H  H384  1  0.48990000  0.43340000  0.52930000  0.5 0.1019869354
C  C1  1  0.90330000  0.97730000  0.17557000  1.0 0.2074815541
C  C2  1  0.87170000  0.93860000  0.17710000  1.0 -0.185200142
C  C3  1  0.89630000  0.90340000  0.17620000  1.0 -0.1813561565
C  C4  1  0.94270000  0.91530000  0.17593000  1.0 0.1611794304
C  C5  1  0.97880000  0.88790000  0.17495000  1.0 -0.0984862897
C  C6  1  0.97087000  0.83896000  0.17487000  1.0 0.089484565
C  C7  1  0.97610000  0.81696000  0.13975000  1.0 -0.1577617685
C  C8  1  0.96810000  0.77174000  0.13745000  1.0 -0.0984862897
C  C9  1  0.95480000  0.74853000  0.17027000  1.0 -0.1105540915
C  C10  1  0.94960000  0.77053000  0.20538000  1.0 -0.0395095711
C  C11  1  0.95759000  0.81575000  0.20769000  1.0 -0.1488905863
C  C12  1  0.93440000  0.74480000  0.23960000  1.0 0.5830895624
C  C13  1  0.97350000  0.67270000  0.33350000  1.0 0.5541305675
C  C14  1  0.00880000  0.64720000  0.35210000  1.0 -0.0459419456
C  C15  1  0.01540000  0.60280000  0.34340000  1.0 -0.0984862897
C  C16  1  0.04780000  0.57890000  0.36290000  1.0 -0.0984862897
C  C17  1  0.07350000  0.59940000  0.39110000  1.0 -0.1330845493
C  C18  1  0.06690000  0.64380000  0.39980000  1.0 0.0730943083
C  C19  1  0.03450000  0.66770000  0.38027000  1.0 -0.1447945114
C  C20  1  0.04540000  0.63660000  0.47890000  1.0 -0.2081008737
C  C21  1  0.08200000  0.65620000  0.46800000  1.0 0.1611794304
C  C22  1  0.09780000  0.66400000  0.42870000  1.0 -0.0395095711
C  C23  1  0.13700000  0.68020000  0.41740000  1.0 0.1611794304
C  C24  1  0.14900000  0.68750000  0.37730000  1.0 -0.1577617685
C  C25  1  0.18720000  0.70750000  0.37660000  1.0 -0.1813561565
C  C26  1  0.20010000  0.72110000  0.41700000  1.0 0.2048126422
C  C27  1  0.23900000  0.73910000  0.42880000  1.0 -0.0984862897
C  C28  1  0.24980000  0.74900000  0.46760000  1.0 0.1687973089
C  C29  1  0.29180000  0.76510000  0.48230000  1.0 -0.168562231
C  C30  1  0.84530000  0.70360000  0.32860000  1.0 0.5541305675
C  C31  1  0.80270000  0.70080000  0.35100000  1.0 -0.0099268012
C  C32  1  0.77520000  0.66470000  0.34410000  1.0 -0.1105540915
C  C33  1  0.73620000  0.65990000  0.36510000  1.0 -0.0984862897
C  C34  1  0.72480000  0.69100000  0.39300000  1.0 -0.1488905863
C  C35  1  0.75220000  0.72700000  0.39990000  1.0 0.089484565
C  C36  1  0.79120000  0.73192000  0.37900000  1.0 -0.1577617685
C  C37  1  0.09670000  0.02270000  0.17557000  1.0 0.2074815541
C  C38  1  0.12830000  0.06140000  0.17710000  1.0 -0.185200142
C  C39  1  0.10370000  0.09660000  0.17620000  1.0 -0.1813561565
C  C40  1  0.05730000  0.08470000  0.17593000  1.0 0.1611794304
C  C41  1  0.02120000  0.11210000  0.17495000  1.0 -0.0984862897
C  C42  1  0.02913000  0.16104000  0.17487000  1.0 0.089484565
C  C43  1  0.02390000  0.18304000  0.13975000  1.0 -0.1577617685
C  C44  1  0.03190000  0.22826000  0.13745000  1.0 -0.0984862897
C  C45  1  0.04520000  0.25147000  0.17027000  1.0 -0.1105540915
C  C46  1  0.05040000  0.22947000  0.20538000  1.0 -0.0395095711
C  C47  1  0.04241000  0.18425000  0.20769000  1.0 -0.1488905863
C  C48  1  0.06560000  0.25520000  0.23960000  1.0 0.5830895624
C  C49  1  0.02650000  0.32730000  0.33350000  1.0 0.5559683575
C  C50  1  0.99120000  0.35280000  0.35210000  1.0 -0.0459419456
C  C51  1  0.98460000  0.39720000  0.34340000  1.0 -0.0984862897
C  C52  1  0.95220000  0.42110000  0.36290000  1.0 -0.0984862897
C  C53  1  0.92650000  0.40060000  0.39110000  1.0 -0.1330845493
C  C54  1  0.93310000  0.35620000  0.39980000  1.0 0.0755239411
C  C55  1  0.96550000  0.33230000  0.38027000  1.0 -0.1447945114
C  C56  1  0.95460000  0.36340000  0.47890000  1.0 -0.2081008737
C  C57  1  0.91800000  0.34380000  0.46800000  1.0 0.1611794304
C  C58  1  0.90220000  0.33600000  0.42870000  1.0 -0.0395095711
C  C59  1  0.86300000  0.31980000  0.41740000  1.0 0.1611794304
C  C60  1  0.85100000  0.31250000  0.37730000  1.0 -0.1577617685
C  C61  1  0.81280000  0.29250000  0.37660000  1.0 -0.1813561565
C  C62  1  0.79990000  0.27890000  0.41700000  1.0 0.2048126422
C  C63  1  0.76100000  0.26090000  0.42880000  1.0 -0.0984862897
C  C64  1  0.75020000  0.25100000  0.46760000  1.0 0.1687973089
C  C65  1  0.70820000  0.23490000  0.48230000  1.0 -0.168562231
C  C66  1  0.15470000  0.29640000  0.32860000  1.0 0.5541305675
C  C67  1  0.19730000  0.29920000  0.35100000  1.0 -0.0099268012
C  C68  1  0.22480000  0.33530000  0.34410000  1.0 -0.1105540915
C  C69  1  0.26380000  0.34010000  0.36510000  1.0 -0.0984862897
C  C70  1  0.27520000  0.30900000  0.39300000  1.0 -0.1488905863
C  C71  1  0.24780000  0.27300000  0.39990000  1.0 0.089484565
C  C72  1  0.20880000  0.26808000  0.37900000  1.0 -0.1577617685
C  C73  1  0.02270000  0.90330000  0.17557000  1.0 0.2074815541
C  C74  1  0.06140000  0.87170000  0.17710000  1.0 -0.185200142
C  C75  1  0.09660000  0.89630000  0.17620000  1.0 -0.1813561565
C  C76  1  0.08470000  0.94270000  0.17593000  1.0 0.1611794304
C  C77  1  0.11210000  0.97880000  0.17495000  1.0 -0.0984862897
C  C78  1  0.16104000  0.97087000  0.17487000  1.0 0.089484565
C  C79  1  0.18304000  0.97610000  0.13975000  1.0 -0.1577617685
C  C80  1  0.22826000  0.96810000  0.13745000  1.0 -0.0984862897
C  C81  1  0.25147000  0.95480000  0.17027000  1.0 -0.1105540915
C  C82  1  0.22947000  0.94960000  0.20538000  1.0 -0.0395095711
C  C83  1  0.18425000  0.95759000  0.20769000  1.0 -0.1488905863
C  C84  1  0.25520000  0.93440000  0.23960000  1.0 0.5830895624
C  C85  1  0.32730000  0.97350000  0.33350000  1.0 0.5559683575
C  C86  1  0.35280000  0.00880000  0.35210000  1.0 -0.0459419456
C  C87  1  0.39720000  0.01540000  0.34340000  1.0 -0.0984862897
C  C88  1  0.42110000  0.04780000  0.36290000  1.0 -0.0984862897
C  C89  1  0.40060000  0.07350000  0.39110000  1.0 -0.1330845493
C  C90  1  0.35620000  0.06690000  0.39980000  1.0 0.0730943083
C  C91  1  0.33230000  0.03450000  0.38027000  1.0 -0.1447945114
C  C92  1  0.36340000  0.04540000  0.47890000  1.0 -0.2081008737
C  C93  1  0.34380000  0.08200000  0.46800000  1.0 0.1611794304
C  C94  1  0.33600000  0.09780000  0.42870000  1.0 -0.0395095711
C  C95  1  0.31980000  0.13700000  0.41740000  1.0 0.1611794304
C  C96  1  0.31250000  0.14900000  0.37730000  1.0 -0.1577617685
C  C97  1  0.29250000  0.18720000  0.37660000  1.0 -0.1813561565
C  C98  1  0.27890000  0.20010000  0.41700000  1.0 0.2048126422
C  C99  1  0.26090000  0.23900000  0.42880000  1.0 -0.0984862897
C  C100  1  0.25100000  0.24980000  0.46760000  1.0 0.1687973089
C  C101  1  0.23490000  0.29180000  0.48230000  1.0 -0.168562231
C  C102  1  0.29640000  0.84530000  0.32860000  1.0 0.5541305675
C  C103  1  0.29920000  0.80270000  0.35100000  1.0 -0.0099268012
C  C104  1  0.33530000  0.77520000  0.34410000  1.0 -0.1105540915
C  C105  1  0.34010000  0.73620000  0.36510000  1.0 -0.0984862897
C  C106  1  0.30900000  0.72480000  0.39300000  1.0 -0.1488905863
C  C107  1  0.27300000  0.75220000  0.39990000  1.0 0.089484565
C  C108  1  0.26808000  0.79120000  0.37900000  1.0 -0.1577617685
C  C109  1  0.97730000  0.09670000  0.17557000  1.0 0.2074815541
C  C110  1  0.93860000  0.12830000  0.17710000  1.0 -0.185200142
C  C111  1  0.90340000  0.10370000  0.17620000  1.0 -0.1813561565
C  C112  1  0.91530000  0.05730000  0.17593000  1.0 0.1611794304
C  C113  1  0.88790000  0.02120000  0.17495000  1.0 -0.0984862897
C  C114  1  0.83896000  0.02913000  0.17487000  1.0 0.089484565
C  C115  1  0.81696000  0.02390000  0.13975000  1.0 -0.1577617685
C  C116  1  0.77174000  0.03190000  0.13745000  1.0 -0.0984862897
C  C117  1  0.74853000  0.04520000  0.17027000  1.0 -0.1105540915
C  C118  1  0.77053000  0.05040000  0.20538000  1.0 -0.0395095711
C  C119  1  0.81575000  0.04241000  0.20769000  1.0 -0.1488905863
C  C120  1  0.74480000  0.06560000  0.23960000  1.0 0.5830895624
C  C121  1  0.67270000  0.02650000  0.33350000  1.0 0.5559683575
C  C122  1  0.64720000  0.99120000  0.35210000  1.0 -0.0459419456
C  C123  1  0.60280000  0.98460000  0.34340000  1.0 -0.0984862897
C  C124  1  0.57890000  0.95220000  0.36290000  1.0 -0.0984862897
C  C125  1  0.59940000  0.92650000  0.39110000  1.0 -0.1330845493
C  C126  1  0.64380000  0.93310000  0.39980000  1.0 0.0730943083
C  C127  1  0.66770000  0.96550000  0.38027000  1.0 -0.1447945114
C  C128  1  0.63660000  0.95460000  0.47890000  1.0 -0.2081008737
C  C129  1  0.65620000  0.91800000  0.46800000  1.0 0.1611794304
C  C130  1  0.66400000  0.90220000  0.42870000  1.0 -0.0395095711
C  C131  1  0.68020000  0.86300000  0.41740000  1.0 0.1611794304
C  C132  1  0.68750000  0.85100000  0.37730000  1.0 -0.1577617685
C  C133  1  0.70750000  0.81280000  0.37660000  1.0 -0.1813561565
C  C134  1  0.72110000  0.79990000  0.41700000  1.0 0.2048126422
C  C135  1  0.73910000  0.76100000  0.42880000  1.0 -0.0984862897
C  C136  1  0.74900000  0.75020000  0.46760000  1.0 0.1687973089
C  C137  1  0.76510000  0.70820000  0.48230000  1.0 -0.168562231
C  C138  1  0.70360000  0.15470000  0.32860000  1.0 0.5541305675
C  C139  1  0.70080000  0.19730000  0.35100000  1.0 -0.0099268012
C  C140  1  0.66470000  0.22480000  0.34410000  1.0 -0.1105540915
C  C141  1  0.65990000  0.26380000  0.36510000  1.0 -0.0984862897
C  C142  1  0.69100000  0.27520000  0.39300000  1.0 -0.1488905863
C  C143  1  0.72700000  0.24780000  0.39990000  1.0 0.089484565
C  C144  1  0.73192000  0.20880000  0.37900000  1.0 -0.1577617685
C  C145  1  0.59670000  0.47730000  0.32443000  1.0 0.2074815541
C  C146  1  0.62830000  0.43860000  0.32290000  1.0 -0.185200142
C  C147  1  0.60370000  0.40340000  0.32380000  1.0 -0.1813561565
C  C148  1  0.55730000  0.41530000  0.32407000  1.0 0.1611794304
C  C149  1  0.52120000  0.38790000  0.32505000  1.0 -0.0984862897
C  C150  1  0.52913000  0.33896000  0.32513000  1.0 0.089484565
C  C151  1  0.52390000  0.31696000  0.36025000  1.0 -0.1577617685
C  C152  1  0.53190000  0.27174000  0.36255000  1.0 -0.0984862897
C  C153  1  0.54520000  0.24853000  0.32973000  1.0 -0.1105540915
C  C154  1  0.55040000  0.27053000  0.29462000  1.0 -0.0395095711
C  C155  1  0.54241000  0.31575000  0.29231000  1.0 -0.1488905863
C  C156  1  0.56560000  0.24480000  0.26040000  1.0 0.5830895624
C  C157  1  0.52650000  0.17270000  0.16650000  1.0 0.5541305675
C  C158  1  0.49120000  0.14720000  0.14790000  1.0 -0.0459419456
C  C159  1  0.48460000  0.10280000  0.15660000  1.0 -0.0984862897
C  C160  1  0.45220000  0.07890000  0.13710000  1.0 -0.0984862897
C  C161  1  0.42650000  0.09940000  0.10890000  1.0 -0.1330845493
C  C162  1  0.43310000  0.14380000  0.10020000  1.0 0.0730943083
C  C163  1  0.46550000  0.16770000  0.11973000  1.0 -0.1447945114
C  C164  1  0.45460000  0.13660000  0.02110000  1.0 -0.2081008737
C  C165  1  0.41800000  0.15620000  0.03200000  1.0 0.1611794304
C  C166  1  0.40220000  0.16400000  0.07130000  1.0 -0.0395095711
C  C167  1  0.36300000  0.18020000  0.08260000  1.0 0.1611794304
C  C168  1  0.35100000  0.18750000  0.12270000  1.0 -0.1577617685
C  C169  1  0.31280000  0.20750000  0.12340000  1.0 -0.1813561565
C  C170  1  0.29990000  0.22110000  0.08300000  1.0 0.2074815541
C  C171  1  0.26100000  0.23910000  0.07120000  1.0 -0.0984862897
C  C172  1  0.25020000  0.24900000  0.03240000  1.0 0.1687973089
C  C173  1  0.20820000  0.26510000  0.01770000  1.0 -0.168562231
C  C174  1  0.65470000  0.20360000  0.17140000  1.0 0.5541305675
C  C175  1  0.69730000  0.20080000  0.14900000  1.0 -0.0099268012
C  C176  1  0.72480000  0.16470000  0.15590000  1.0 -0.1105540915
C  C177  1  0.76380000  0.15990000  0.13490000  1.0 -0.0984862897
C  C178  1  0.77520000  0.19100000  0.10700000  1.0 -0.1488905863
C  C179  1  0.74780000  0.22700000  0.10010000  1.0 0.089484565
C  C180  1  0.70880000  0.23192000  0.12100000  1.0 -0.1577617685
C  C181  1  0.40330000  0.52270000  0.32443000  1.0 0.2074815541
C  C182  1  0.37170000  0.56140000  0.32290000  1.0 -0.185200142
C  C183  1  0.39630000  0.59660000  0.32380000  1.0 -0.185200142
C  C184  1  0.44270000  0.58470000  0.32407000  1.0 0.1611794304
C  C185  1  0.47880000  0.61210000  0.32505000  1.0 -0.0984862897
C  C186  1  0.47087000  0.66104000  0.32513000  1.0 0.089484565
C  C187  1  0.47610000  0.68304000  0.36025000  1.0 -0.1577617685
C  C188  1  0.46810000  0.72826000  0.36255000  1.0 -0.0984862897
C  C189  1  0.45480000  0.75147000  0.32973000  1.0 -0.1105540915
C  C190  1  0.44960000  0.72947000  0.29462000  1.0 -0.0395095711
C  C191  1  0.45759000  0.68425000  0.29231000  1.0 -0.1488905863
C  C192  1  0.43440000  0.75520000  0.26040000  1.0 0.5830895624
C  C193  1  0.47350000  0.82730000  0.16650000  1.0 0.5541305675
C  C194  1  0.50880000  0.85280000  0.14790000  1.0 -0.0459419456
C  C195  1  0.51540000  0.89720000  0.15660000  1.0 -0.0984862897
C  C196  1  0.54780000  0.92110000  0.13710000  1.0 -0.0984862897
C  C197  1  0.57350000  0.90060000  0.10890000  1.0 -0.1330845493
C  C198  1  0.56690000  0.85620000  0.10020000  1.0 0.0730943083
C  C199  1  0.53450000  0.83230000  0.11973000  1.0 -0.1447945114
C  C200  1  0.54540000  0.86340000  0.02110000  1.0 -0.2081008737
C  C201  1  0.58200000  0.84380000  0.03200000  1.0 0.1611794304
C  C202  1  0.59780000  0.83600000  0.07130000  1.0 -0.0395095711
C  C203  1  0.63700000  0.81980000  0.08260000  1.0 0.1611794304
C  C204  1  0.64900000  0.81250000  0.12270000  1.0 -0.1577617685
C  C205  1  0.68720000  0.79250000  0.12340000  1.0 -0.1813561565
C  C206  1  0.70010000  0.77890000  0.08300000  1.0 0.2048126422
C  C207  1  0.73900000  0.76090000  0.07120000  1.0 -0.0984862897
C  C208  1  0.74980000  0.75100000  0.03240000  1.0 0.1687973089
C  C209  1  0.79180000  0.73490000  0.01770000  1.0 -0.168562231
C  C210  1  0.34530000  0.79640000  0.17140000  1.0 0.5541305675
C  C211  1  0.30270000  0.79920000  0.14900000  1.0 -0.0099268012
C  C212  1  0.27520000  0.83530000  0.15590000  1.0 -0.1105540915
C  C213  1  0.23620000  0.84010000  0.13490000  1.0 -0.0984862897
C  C214  1  0.22480000  0.80900000  0.10700000  1.0 -0.1488905863
C  C215  1  0.25220000  0.77300000  0.10010000  1.0 0.089484565
C  C216  1  0.29120000  0.76808000  0.12100000  1.0 -0.1577617685
C  C217  1  0.47730000  0.40330000  0.32443000  1.0 0.2074815541
C  C218  1  0.43860000  0.37170000  0.32290000  1.0 -0.185200142
C  C219  1  0.40340000  0.39630000  0.32380000  1.0 -0.1813561565
C  C220  1  0.41530000  0.44270000  0.32407000  1.0 0.1611794304
C  C221  1  0.38790000  0.47880000  0.32505000  1.0 -0.0984862897
C  C222  1  0.33896000  0.47087000  0.32513000  1.0 0.089484565
C  C223  1  0.31696000  0.47610000  0.36025000  1.0 -0.1577617685
C  C224  1  0.27174000  0.46810000  0.36255000  1.0 -0.0984862897
C  C225  1  0.24853000  0.45480000  0.32973000  1.0 -0.1105540915
C  C226  1  0.27053000  0.44960000  0.29462000  1.0 -0.0395095711
C  C227  1  0.31575000  0.45759000  0.29231000  1.0 -0.1488905863
C  C228  1  0.24480000  0.43440000  0.26040000  1.0 0.5830895624
C  C229  1  0.17270000  0.47350000  0.16650000  1.0 0.5559683575
C  C230  1  0.14720000  0.50880000  0.14790000  1.0 -0.0459419456
C  C231  1  0.10280000  0.51540000  0.15660000  1.0 -0.0984862897
C  C232  1  0.07890000  0.54780000  0.13710000  1.0 -0.0984862897
C  C233  1  0.09940000  0.57350000  0.10890000  1.0 -0.1330845493
C  C234  1  0.14380000  0.56690000  0.10020000  1.0 0.0730943083
C  C235  1  0.16770000  0.53450000  0.11973000  1.0 -0.1447945114
C  C236  1  0.13660000  0.54540000  0.02110000  1.0 -0.2081008737
C  C237  1  0.15620000  0.58200000  0.03200000  1.0 0.1611794304
C  C238  1  0.16400000  0.59780000  0.07130000  1.0 -0.0395095711
C  C239  1  0.18020000  0.63700000  0.08260000  1.0 0.1611794304
C  C240  1  0.18750000  0.64900000  0.12270000  1.0 -0.1577617685
C  C241  1  0.20750000  0.68720000  0.12340000  1.0 -0.1813561565
C  C242  1  0.22110000  0.70010000  0.08300000  1.0 0.2048126422
C  C243  1  0.23910000  0.73900000  0.07120000  1.0 -0.0984862897
C  C244  1  0.24900000  0.74980000  0.03240000  1.0 0.1687973089
C  C245  1  0.26510000  0.79180000  0.01770000  1.0 -0.168562231
C  C246  1  0.20360000  0.34530000  0.17140000  1.0 0.5541305675
C  C247  1  0.20080000  0.30270000  0.14900000  1.0 -0.0099268012
C  C248  1  0.16470000  0.27520000  0.15590000  1.0 -0.1105540915
C  C249  1  0.15990000  0.23620000  0.13490000  1.0 -0.0984862897
C  C250  1  0.19100000  0.22480000  0.10700000  1.0 -0.1488905863
C  C251  1  0.22700000  0.25220000  0.10010000  1.0 0.089484565
C  C252  1  0.23192000  0.29120000  0.12100000  1.0 -0.1577617685
C  C253  1  0.52270000  0.59670000  0.32443000  1.0 0.2074815541
C  C254  1  0.56140000  0.62830000  0.32290000  1.0 -0.185200142
C  C255  1  0.59660000  0.60370000  0.32380000  1.0 -0.1813561565
C  C256  1  0.58470000  0.55730000  0.32407000  1.0 0.1611794304
C  C257  1  0.61210000  0.52120000  0.32505000  1.0 -0.0984862897
C  C258  1  0.66104000  0.52913000  0.32513000  1.0 0.089484565
C  C259  1  0.68304000  0.52390000  0.36025000  1.0 -0.1577617685
C  C260  1  0.72826000  0.53190000  0.36255000  1.0 -0.0984862897
C  C261  1  0.75147000  0.54520000  0.32973000  1.0 -0.1105540915
C  C262  1  0.72947000  0.55040000  0.29462000  1.0 -0.0395095711
C  C263  1  0.68425000  0.54241000  0.29231000  1.0 -0.1488905863
C  C264  1  0.75520000  0.56560000  0.26040000  1.0 0.5830895624
C  C265  1  0.82730000  0.52650000  0.16650000  1.0 0.5541305675
C  C266  1  0.85280000  0.49120000  0.14790000  1.0 -0.0459419456
C  C267  1  0.89720000  0.48460000  0.15660000  1.0 -0.0984862897
C  C268  1  0.92110000  0.45220000  0.13710000  1.0 -0.0984862897
C  C269  1  0.90060000  0.42650000  0.10890000  1.0 -0.1330845493
C  C270  1  0.85620000  0.43310000  0.10020000  1.0 0.0730943083
C  C271  1  0.83230000  0.46550000  0.11973000  1.0 -0.1447945114
C  C272  1  0.86340000  0.45460000  0.02110000  1.0 -0.2081008737
C  C273  1  0.84380000  0.41800000  0.03200000  1.0 0.1611794304
C  C274  1  0.83600000  0.40220000  0.07130000  1.0 -0.0395095711
C  C275  1  0.81980000  0.36300000  0.08260000  1.0 0.1611794304
C  C276  1  0.81250000  0.35100000  0.12270000  1.0 -0.1577617685
C  C277  1  0.79250000  0.31280000  0.12340000  1.0 -0.1813561565
C  C278  1  0.77890000  0.29990000  0.08300000  1.0 0.2074815541
C  C279  1  0.76090000  0.26100000  0.07120000  1.0 -0.0984862897
C  C280  1  0.75100000  0.25020000  0.03240000  1.0 0.1687973089
C  C281  1  0.73490000  0.20820000  0.01770000  1.0 -0.168562231
C  C282  1  0.79640000  0.65470000  0.17140000  1.0 0.5541305675
C  C283  1  0.79920000  0.69730000  0.14900000  1.0 -0.0099268012
C  C284  1  0.83530000  0.72480000  0.15590000  1.0 -0.1105540915
C  C285  1  0.84010000  0.76380000  0.13490000  1.0 -0.0984862897
C  C286  1  0.80900000  0.77520000  0.10700000  1.0 -0.1488905863
C  C287  1  0.77300000  0.74780000  0.10010000  1.0 0.089484565
C  C288  1  0.76808000  0.70880000  0.12100000  1.0 -0.1577617685
C  C289  1  0.09670000  0.02270000  0.82443000  1.0 0.2074815541
C  C290  1  0.12830000  0.06140000  0.82290000  1.0 -0.185200142
C  C291  1  0.10370000  0.09660000  0.82380000  1.0 -0.185200142
C  C292  1  0.05730000  0.08470000  0.82407000  1.0 0.1611794304
C  C293  1  0.02120000  0.11210000  0.82505000  1.0 -0.0984862897
C  C294  1  0.02913000  0.16104000  0.82513000  1.0 0.089484565
C  C295  1  0.02390000  0.18304000  0.86025000  1.0 -0.1577617685
C  C296  1  0.03190000  0.22826000  0.86255000  1.0 -0.0984862897
C  C297  1  0.04520000  0.25147000  0.82973000  1.0 -0.1105540915
C  C298  1  0.05040000  0.22947000  0.79462000  1.0 -0.0395095711
C  C299  1  0.04241000  0.18425000  0.79231000  1.0 -0.1488905863
C  C300  1  0.06560000  0.25520000  0.76040000  1.0 0.5830895624
C  C301  1  0.02650000  0.32730000  0.66650000  1.0 0.5559683575
C  C302  1  0.99120000  0.35280000  0.64790000  1.0 -0.0459419456
C  C303  1  0.98460000  0.39720000  0.65660000  1.0 -0.0984862897
C  C304  1  0.95220000  0.42110000  0.63710000  1.0 -0.0984862897
C  C305  1  0.92650000  0.40060000  0.60890000  1.0 -0.1330845493
C  C306  1  0.93310000  0.35620000  0.60020000  1.0 0.0755239411
C  C307  1  0.96550000  0.33230000  0.61973000  1.0 -0.1447945114
C  C308  1  0.95460000  0.36340000  0.52110000  1.0 -0.2081008737
C  C309  1  0.91800000  0.34380000  0.53200000  1.0 0.1611794304
C  C310  1  0.90220000  0.33600000  0.57130000  1.0 -0.0395095711
C  C311  1  0.86300000  0.31980000  0.58260000  1.0 0.1611794304
C  C312  1  0.85100000  0.31250000  0.62270000  1.0 -0.1577617685
C  C313  1  0.81280000  0.29250000  0.62340000  1.0 -0.1813561565
C  C314  1  0.79990000  0.27890000  0.58300000  1.0 0.2048126422
C  C315  1  0.76100000  0.26090000  0.57120000  1.0 -0.0984862897
C  C316  1  0.75020000  0.25100000  0.53240000  1.0 0.1687973089
C  C317  1  0.70820000  0.23490000  0.51770000  1.0 -0.168562231
C  C318  1  0.15470000  0.29640000  0.67140000  1.0 0.5541305675
C  C319  1  0.19730000  0.29920000  0.64900000  1.0 -0.0099268012
C  C320  1  0.22480000  0.33530000  0.65590000  1.0 -0.1105540915
C  C321  1  0.26380000  0.34010000  0.63490000  1.0 -0.0984862897
C  C322  1  0.27520000  0.30900000  0.60700000  1.0 -0.1488905863
C  C323  1  0.24780000  0.27300000  0.60010000  1.0 0.089484565
C  C324  1  0.20880000  0.26808000  0.62100000  1.0 -0.1577617685
C  C325  1  0.90330000  0.97730000  0.82443000  1.0 0.2074815541
C  C326  1  0.87170000  0.93860000  0.82290000  1.0 -0.185200142
C  C327  1  0.89630000  0.90340000  0.82380000  1.0 -0.1813561565
C  C328  1  0.94270000  0.91530000  0.82407000  1.0 0.1611794304
C  C329  1  0.97880000  0.88790000  0.82505000  1.0 -0.0984862897
C  C330  1  0.97087000  0.83896000  0.82513000  1.0 0.089484565
C  C331  1  0.97610000  0.81696000  0.86025000  1.0 -0.1577617685
C  C332  1  0.96810000  0.77174000  0.86255000  1.0 -0.0984862897
C  C333  1  0.95480000  0.74853000  0.82973000  1.0 -0.1105540915
C  C334  1  0.94960000  0.77053000  0.79462000  1.0 -0.0395095711
C  C335  1  0.95759000  0.81575000  0.79231000  1.0 -0.1488905863
C  C336  1  0.93440000  0.74480000  0.76040000  1.0 0.5830895624
C  C337  1  0.97350000  0.67270000  0.66650000  1.0 0.5559683575
C  C338  1  0.00880000  0.64720000  0.64790000  1.0 -0.0459419456
C  C339  1  0.01540000  0.60280000  0.65660000  1.0 -0.0984862897
C  C340  1  0.04780000  0.57890000  0.63710000  1.0 -0.0984862897
C  C341  1  0.07350000  0.59940000  0.60890000  1.0 -0.1330845493
C  C342  1  0.06690000  0.64380000  0.60020000  1.0 0.0730943083
C  C343  1  0.03450000  0.66770000  0.61973000  1.0 -0.1447945114
C  C344  1  0.04540000  0.63660000  0.52110000  1.0 -0.2081008737
C  C345  1  0.08200000  0.65620000  0.53200000  1.0 0.1611794304
C  C346  1  0.09780000  0.66400000  0.57130000  1.0 -0.0395095711
C  C347  1  0.13700000  0.68020000  0.58260000  1.0 0.1611794304
C  C348  1  0.14900000  0.68750000  0.62270000  1.0 -0.1577617685
C  C349  1  0.18720000  0.70750000  0.62340000  1.0 -0.1813561565
C  C350  1  0.20010000  0.72110000  0.58300000  1.0 0.2048126422
C  C351  1  0.23900000  0.73910000  0.57120000  1.0 -0.0984862897
C  C352  1  0.24980000  0.74900000  0.53240000  1.0 0.1687973089
C  C353  1  0.29180000  0.76510000  0.51770000  1.0 -0.168562231
C  C354  1  0.84530000  0.70360000  0.67140000  1.0 0.5541305675
C  C355  1  0.80270000  0.70080000  0.64900000  1.0 -0.0099268012
C  C356  1  0.77520000  0.66470000  0.65590000  1.0 -0.1105540915
C  C357  1  0.73620000  0.65990000  0.63490000  1.0 -0.0984862897
C  C358  1  0.72480000  0.69100000  0.60700000  1.0 -0.1488905863
C  C359  1  0.75220000  0.72700000  0.60010000  1.0 0.089484565
C  C360  1  0.79120000  0.73192000  0.62100000  1.0 -0.1577617685
C  C361  1  0.97730000  0.09670000  0.82443000  1.0 0.2074815541
C  C362  1  0.93860000  0.12830000  0.82290000  1.0 -0.185200142
C  C363  1  0.90340000  0.10370000  0.82380000  1.0 -0.1813561565
C  C364  1  0.91530000  0.05730000  0.82407000  1.0 0.1611794304
C  C365  1  0.88790000  0.02120000  0.82505000  1.0 -0.0984862897
C  C366  1  0.83896000  0.02913000  0.82513000  1.0 0.089484565
C  C367  1  0.81696000  0.02390000  0.86025000  1.0 -0.1577617685
C  C368  1  0.77174000  0.03190000  0.86255000  1.0 -0.0984862897
C  C369  1  0.74853000  0.04520000  0.82973000  1.0 -0.1105540915
C  C370  1  0.77053000  0.05040000  0.79462000  1.0 -0.0395095711
C  C371  1  0.81575000  0.04241000  0.79231000  1.0 -0.1488905863
C  C372  1  0.74480000  0.06560000  0.76040000  1.0 0.5830895624
C  C373  1  0.67270000  0.02650000  0.66650000  1.0 0.5559683575
C  C374  1  0.64720000  0.99120000  0.64790000  1.0 -0.0459419456
C  C375  1  0.60280000  0.98460000  0.65660000  1.0 -0.0984862897
C  C376  1  0.57890000  0.95220000  0.63710000  1.0 -0.0984862897
C  C377  1  0.59940000  0.92650000  0.60890000  1.0 -0.1330845493
C  C378  1  0.64380000  0.93310000  0.60020000  1.0 0.0730943083
C  C379  1  0.66770000  0.96550000  0.61973000  1.0 -0.1447945114
C  C380  1  0.63660000  0.95460000  0.52110000  1.0 -0.2081008737
C  C381  1  0.65620000  0.91800000  0.53200000  1.0 0.1611794304
C  C382  1  0.66400000  0.90220000  0.57130000  1.0 -0.0395095711
C  C383  1  0.68020000  0.86300000  0.58260000  1.0 0.1611794304
C  C384  1  0.68750000  0.85100000  0.62270000  1.0 -0.1577617685
C  C385  1  0.70750000  0.81280000  0.62340000  1.0 -0.1813561565
C  C386  1  0.72110000  0.79990000  0.58300000  1.0 0.2048126422
C  C387  1  0.73910000  0.76100000  0.57120000  1.0 -0.0984862897
C  C388  1  0.74900000  0.75020000  0.53240000  1.0 0.1687973089
C  C389  1  0.76510000  0.70820000  0.51770000  1.0 -0.168562231
C  C390  1  0.70360000  0.15470000  0.67140000  1.0 0.5541305675
C  C391  1  0.70080000  0.19730000  0.64900000  1.0 -0.0099268012
C  C392  1  0.66470000  0.22480000  0.65590000  1.0 -0.1105540915
C  C393  1  0.65990000  0.26380000  0.63490000  1.0 -0.0984862897
C  C394  1  0.69100000  0.27520000  0.60700000  1.0 -0.1488905863
C  C395  1  0.72700000  0.24780000  0.60010000  1.0 0.089484565
C  C396  1  0.73192000  0.20880000  0.62100000  1.0 -0.1577617685
C  C397  1  0.02270000  0.90330000  0.82443000  1.0 0.2074815541
C  C398  1  0.06140000  0.87170000  0.82290000  1.0 -0.185200142
C  C399  1  0.09660000  0.89630000  0.82380000  1.0 -0.1813561565
C  C400  1  0.08470000  0.94270000  0.82407000  1.0 0.1611794304
C  C401  1  0.11210000  0.97880000  0.82505000  1.0 -0.0984862897
C  C402  1  0.16104000  0.97087000  0.82513000  1.0 0.089484565
C  C403  1  0.18304000  0.97610000  0.86025000  1.0 -0.1577617685
C  C404  1  0.22826000  0.96810000  0.86255000  1.0 -0.0984862897
C  C405  1  0.25147000  0.95480000  0.82973000  1.0 -0.1105540915
C  C406  1  0.22947000  0.94960000  0.79462000  1.0 -0.0395095711
C  C407  1  0.18425000  0.95759000  0.79231000  1.0 -0.1488905863
C  C408  1  0.25520000  0.93440000  0.76040000  1.0 0.5830895624
C  C409  1  0.32730000  0.97350000  0.66650000  1.0 0.5559683575
C  C410  1  0.35280000  0.00880000  0.64790000  1.0 -0.0459419456
C  C411  1  0.39720000  0.01540000  0.65660000  1.0 -0.0984862897
C  C412  1  0.42110000  0.04780000  0.63710000  1.0 -0.0984862897
C  C413  1  0.40060000  0.07350000  0.60890000  1.0 -0.1330845493
C  C414  1  0.35620000  0.06690000  0.60020000  1.0 0.0730943083
C  C415  1  0.33230000  0.03450000  0.61973000  1.0 -0.1447945114
C  C416  1  0.36340000  0.04540000  0.52110000  1.0 -0.2081008737
C  C417  1  0.34380000  0.08200000  0.53200000  1.0 0.1611794304
C  C418  1  0.33600000  0.09780000  0.57130000  1.0 -0.0395095711
C  C419  1  0.31980000  0.13700000  0.58260000  1.0 0.1611794304
C  C420  1  0.31250000  0.14900000  0.62270000  1.0 -0.1577617685
C  C421  1  0.29250000  0.18720000  0.62340000  1.0 -0.1813561565
C  C422  1  0.27890000  0.20010000  0.58300000  1.0 0.2048126422
C  C423  1  0.26090000  0.23900000  0.57120000  1.0 -0.0984862897
C  C424  1  0.25100000  0.24980000  0.53240000  1.0 0.1687973089
C  C425  1  0.23490000  0.29180000  0.51770000  1.0 -0.168562231
C  C426  1  0.29640000  0.84530000  0.67140000  1.0 0.5541305675
C  C427  1  0.29920000  0.80270000  0.64900000  1.0 -0.0099268012
C  C428  1  0.33530000  0.77520000  0.65590000  1.0 -0.1105540915
C  C429  1  0.34010000  0.73620000  0.63490000  1.0 -0.0984862897
C  C430  1  0.30900000  0.72480000  0.60700000  1.0 -0.1488905863
C  C431  1  0.27300000  0.75220000  0.60010000  1.0 0.089484565
C  C432  1  0.26808000  0.79120000  0.62100000  1.0 -0.1577617685
C  C433  1  0.40330000  0.52270000  0.67557000  1.0 0.2074815541
C  C434  1  0.37170000  0.56140000  0.67710000  1.0 -0.185200142
C  C435  1  0.39630000  0.59660000  0.67620000  1.0 -0.185200142
C  C436  1  0.44270000  0.58470000  0.67593000  1.0 0.1611794304
C  C437  1  0.47880000  0.61210000  0.67495000  1.0 -0.0984862897
C  C438  1  0.47087000  0.66104000  0.67487000  1.0 0.089484565
C  C439  1  0.47610000  0.68304000  0.63975000  1.0 -0.1577617685
C  C440  1  0.46810000  0.72826000  0.63745000  1.0 -0.0984862897
C  C441  1  0.45480000  0.75147000  0.67027000  1.0 -0.1105540915
C  C442  1  0.44960000  0.72947000  0.70538000  1.0 -0.0395095711
C  C443  1  0.45759000  0.68425000  0.70769000  1.0 -0.1488905863
C  C444  1  0.43440000  0.75520000  0.73960000  1.0 0.5830895624
C  C445  1  0.47350000  0.82730000  0.83350000  1.0 0.5559683575
C  C446  1  0.50880000  0.85280000  0.85210000  1.0 -0.0459419456
C  C447  1  0.51540000  0.89720000  0.84340000  1.0 -0.0984862897
C  C448  1  0.54780000  0.92110000  0.86290000  1.0 -0.0984862897
C  C449  1  0.57350000  0.90060000  0.89110000  1.0 -0.1330845493
C  C450  1  0.56690000  0.85620000  0.89980000  1.0 0.0730943083
C  C451  1  0.53450000  0.83230000  0.88027000  1.0 -0.1447945114
C  C452  1  0.54540000  0.86340000  0.97890000  1.0 -0.2081008737
C  C453  1  0.58200000  0.84380000  0.96800000  1.0 0.1611794304
C  C454  1  0.59780000  0.83600000  0.92870000  1.0 -0.0395095711
C  C455  1  0.63700000  0.81980000  0.91740000  1.0 0.1611794304
C  C456  1  0.64900000  0.81250000  0.87730000  1.0 -0.1577617685
C  C457  1  0.68720000  0.79250000  0.87660000  1.0 -0.1813561565
C  C458  1  0.70010000  0.77890000  0.91700000  1.0 0.2048126422
C  C459  1  0.73900000  0.76090000  0.92880000  1.0 -0.0984862897
C  C460  1  0.74980000  0.75100000  0.96760000  1.0 0.1687973089
C  C461  1  0.79180000  0.73490000  0.98230000  1.0 -0.168562231
C  C462  1  0.34530000  0.79640000  0.82860000  1.0 0.5541305675
C  C463  1  0.30270000  0.79920000  0.85100000  1.0 -0.0099268012
C  C464  1  0.27520000  0.83530000  0.84410000  1.0 -0.1105540915
C  C465  1  0.23620000  0.84010000  0.86510000  1.0 -0.0984862897
C  C466  1  0.22480000  0.80900000  0.89300000  1.0 -0.1488905863
C  C467  1  0.25220000  0.77300000  0.89990000  1.0 0.089484565
C  C468  1  0.29120000  0.76808000  0.87900000  1.0 -0.1577617685
C  C469  1  0.59670000  0.47730000  0.67557000  1.0 0.2074815541
C  C470  1  0.62830000  0.43860000  0.67710000  1.0 -0.185200142
C  C471  1  0.60370000  0.40340000  0.67620000  1.0 -0.1813561565
C  C472  1  0.55730000  0.41530000  0.67593000  1.0 0.1611794304
C  C473  1  0.52120000  0.38790000  0.67495000  1.0 -0.0984862897
C  C474  1  0.52913000  0.33896000  0.67487000  1.0 0.089484565
C  C475  1  0.52390000  0.31696000  0.63975000  1.0 -0.1577617685
C  C476  1  0.53190000  0.27174000  0.63745000  1.0 -0.0984862897
C  C477  1  0.54520000  0.24853000  0.67027000  1.0 -0.1105540915
C  C478  1  0.55040000  0.27053000  0.70538000  1.0 -0.0395095711
C  C479  1  0.54241000  0.31575000  0.70769000  1.0 -0.1488905863
C  C480  1  0.56560000  0.24480000  0.73960000  1.0 0.5830895624
C  C481  1  0.52650000  0.17270000  0.83350000  1.0 0.5541305675
C  C482  1  0.49120000  0.14720000  0.85210000  1.0 -0.0459419456
C  C483  1  0.48460000  0.10280000  0.84340000  1.0 -0.0984862897
C  C484  1  0.45220000  0.07890000  0.86290000  1.0 -0.0984862897
C  C485  1  0.42650000  0.09940000  0.89110000  1.0 -0.1330845493
C  C486  1  0.43310000  0.14380000  0.89980000  1.0 0.0730943083
C  C487  1  0.46550000  0.16770000  0.88027000  1.0 -0.1488905863
C  C488  1  0.45460000  0.13660000  0.97890000  1.0 -0.2081008737
C  C489  1  0.41800000  0.15620000  0.96800000  1.0 0.1611794304
C  C490  1  0.40220000  0.16400000  0.92870000  1.0 -0.0395095711
C  C491  1  0.36300000  0.18020000  0.91740000  1.0 0.1611794304
C  C492  1  0.35100000  0.18750000  0.87730000  1.0 -0.1577617685
C  C493  1  0.31280000  0.20750000  0.87660000  1.0 -0.1813561565
C  C494  1  0.29990000  0.22110000  0.91700000  1.0 0.2048126422
C  C495  1  0.26100000  0.23910000  0.92880000  1.0 -0.0984862897
C  C496  1  0.25020000  0.24900000  0.96760000  1.0 0.1687973089
C  C497  1  0.20820000  0.26510000  0.98230000  1.0 -0.168562231
C  C498  1  0.65470000  0.20360000  0.82860000  1.0 0.5541305675
C  C499  1  0.69730000  0.20080000  0.85100000  1.0 -0.0099268012
C  C500  1  0.72480000  0.16470000  0.84410000  1.0 -0.1105540915
C  C501  1  0.76380000  0.15990000  0.86510000  1.0 -0.0944758148
C  C502  1  0.77520000  0.19100000  0.89300000  1.0 -0.1488905863
C  C503  1  0.74780000  0.22700000  0.89990000  1.0 0.089484565
C  C504  1  0.70880000  0.23192000  0.87900000  1.0 -0.1577617685
C  C505  1  0.52270000  0.59670000  0.67557000  1.0 0.2074815541
C  C506  1  0.56140000  0.62830000  0.67710000  1.0 -0.185200142
C  C507  1  0.59660000  0.60370000  0.67620000  1.0 -0.1813561565
C  C508  1  0.58470000  0.55730000  0.67593000  1.0 0.1611794304
C  C509  1  0.61210000  0.52120000  0.67495000  1.0 -0.0984862897
C  C510  1  0.66104000  0.52913000  0.67487000  1.0 0.089484565
C  C511  1  0.68304000  0.52390000  0.63975000  1.0 -0.1577617685
C  C512  1  0.72826000  0.53190000  0.63745000  1.0 -0.0984862897
C  C513  1  0.75147000  0.54520000  0.67027000  1.0 -0.1105540915
C  C514  1  0.72947000  0.55040000  0.70538000  1.0 -0.0395095711
C  C515  1  0.68425000  0.54241000  0.70769000  1.0 -0.1488905863
C  C516  1  0.75520000  0.56560000  0.73960000  1.0 0.5830895624
C  C517  1  0.82730000  0.52650000  0.83350000  1.0 0.5559683575
C  C518  1  0.85280000  0.49120000  0.85210000  1.0 -0.0459419456
C  C519  1  0.89720000  0.48460000  0.84340000  1.0 -0.0984862897
C  C520  1  0.92110000  0.45220000  0.86290000  1.0 -0.0984862897
C  C521  1  0.90060000  0.42650000  0.89110000  1.0 -0.1330845493
C  C522  1  0.85620000  0.43310000  0.89980000  1.0 0.0730943083
C  C523  1  0.83230000  0.46550000  0.88027000  1.0 -0.1447945114
C  C524  1  0.86340000  0.45460000  0.97890000  1.0 -0.2081008737
C  C525  1  0.84380000  0.41800000  0.96800000  1.0 0.1611794304
C  C526  1  0.83600000  0.40220000  0.92870000  1.0 -0.0395095711
C  C527  1  0.81980000  0.36300000  0.91740000  1.0 0.1611794304
C  C528  1  0.81250000  0.35100000  0.87730000  1.0 -0.1577617685
C  C529  1  0.79250000  0.31280000  0.87660000  1.0 -0.1813561565
C  C530  1  0.77890000  0.29990000  0.91700000  1.0 0.2048126422
C  C531  1  0.76090000  0.26100000  0.92880000  1.0 -0.0984862897
C  C532  1  0.75100000  0.25020000  0.96760000  1.0 0.1687973089
C  C533  1  0.73490000  0.20820000  0.98230000  1.0 -0.168562231
C  C534  1  0.79640000  0.65470000  0.82860000  1.0 0.5541305675
C  C535  1  0.79920000  0.69730000  0.85100000  1.0 -0.0099268012
C  C536  1  0.83530000  0.72480000  0.84410000  1.0 -0.1105540915
C  C537  1  0.84010000  0.76380000  0.86510000  1.0 -0.0984862897
C  C538  1  0.80900000  0.77520000  0.89300000  1.0 -0.1488905863
C  C539  1  0.77300000  0.74780000  0.89990000  1.0 0.089484565
C  C540  1  0.76808000  0.70880000  0.87900000  1.0 -0.1577617685
C  C541  1  0.47730000  0.40330000  0.67557000  1.0 0.2074815541
C  C542  1  0.43860000  0.37170000  0.67710000  1.0 -0.185200142
C  C543  1  0.40340000  0.39630000  0.67620000  1.0 -0.1813561565
C  C544  1  0.41530000  0.44270000  0.67593000  1.0 0.1611794304
C  C545  1  0.38790000  0.47880000  0.67495000  1.0 -0.0984862897
C  C546  1  0.33896000  0.47087000  0.67487000  1.0 0.089484565
C  C547  1  0.31696000  0.47610000  0.63975000  1.0 -0.1577617685
C  C548  1  0.27174000  0.46810000  0.63745000  1.0 -0.0984862897
C  C549  1  0.24853000  0.45480000  0.67027000  1.0 -0.1105540915
C  C550  1  0.27053000  0.44960000  0.70538000  1.0 -0.0395095711
C  C551  1  0.31575000  0.45759000  0.70769000  1.0 -0.1488905863
C  C552  1  0.24480000  0.43440000  0.73960000  1.0 0.5830895624
C  C553  1  0.17270000  0.47350000  0.83350000  1.0 0.5559683575
C  C554  1  0.14720000  0.50880000  0.85210000  1.0 -0.0459419456
C  C555  1  0.10280000  0.51540000  0.84340000  1.0 -0.0984862897
C  C556  1  0.07890000  0.54780000  0.86290000  1.0 -0.0984862897
C  C557  1  0.09940000  0.57350000  0.89110000  1.0 -0.1330845493
C  C558  1  0.14380000  0.56690000  0.89980000  1.0 0.0730943083
C  C559  1  0.16770000  0.53450000  0.88027000  1.0 -0.1447945114
C  C560  1  0.13660000  0.54540000  0.97890000  1.0 -0.2081008737
C  C561  1  0.15620000  0.58200000  0.96800000  1.0 0.1611794304
C  C562  1  0.16400000  0.59780000  0.92870000  1.0 -0.0395095711
C  C563  1  0.18020000  0.63700000  0.91740000  1.0 0.1611794304
C  C564  1  0.18750000  0.64900000  0.87730000  1.0 -0.1577617685
C  C565  1  0.20750000  0.68720000  0.87660000  1.0 -0.1813561565
C  C566  1  0.22110000  0.70010000  0.91700000  1.0 0.2048126422
C  C567  1  0.23910000  0.73900000  0.92880000  1.0 -0.0984862897
C  C568  1  0.24900000  0.74980000  0.96760000  1.0 0.1687973089
C  C569  1  0.26510000  0.79180000  0.98230000  1.0 -0.168562231
C  C570  1  0.20360000  0.34530000  0.82860000  1.0 0.5541305675
C  C571  1  0.20080000  0.30270000  0.85100000  1.0 -0.0099268012
C  C572  1  0.16470000  0.27520000  0.84410000  1.0 -0.1105540915
C  C573  1  0.15990000  0.23620000  0.86510000  1.0 -0.0984862897
C  C574  1  0.19100000  0.22480000  0.89300000  1.0 -0.1488905863
C  C575  1  0.22700000  0.25220000  0.89990000  1.0 0.089484565
C  C576  1  0.23192000  0.29120000  0.87900000  1.0 -0.1577617685
C  C577  1  0.00000000  0.00000000  0.02200000  1.0 0.0590972847
C  C578  1  0.50000000  0.50000000  0.47800000  1.0 0.0590972847
C  C579  1  0.00000000  0.00000000  0.97800000  1.0 0.0590972847
C  C580  1  0.50000000  0.50000000  0.52200000  1.0 0.0590972847
C  C581  1  0.95860000  0.79840000  0.41750000  0.45 0.1019869354
C  C582  1  0.95760000  0.79820000  0.45790000  0.45 -0.1813561565
C  C583  1  0.94340000  0.76070000  0.47759000  0.45 0.1112069272
C  C584  1  0.93030000  0.72340000  0.45700000  0.45 -0.199671434
C  C585  1  0.93130000  0.72360000  0.41670000  0.45 0.0730943083
C  C586  1  0.04140000  0.20160000  0.41750000  0.45 0.1019869354
C  C587  1  0.04240000  0.20180000  0.45790000  0.45 -0.185200142
C  C588  1  0.05660000  0.23930000  0.47759000  0.45 0.1112069272
C  C589  1  0.06970000  0.27660000  0.45700000  0.45 -0.199671434
C  C590  1  0.06870000  0.27640000  0.41670000  0.45 0.0730943083
C  C591  1  0.20160000  0.95860000  0.41750000  0.45 0.1019869354
C  C592  1  0.20180000  0.95760000  0.45790000  0.45 -0.1813561565
C  C593  1  0.23930000  0.94340000  0.47759000  0.45 0.1112069272
C  C594  1  0.27660000  0.93030000  0.45700000  0.45 -0.199671434
C  C595  1  0.27640000  0.93130000  0.41670000  0.45 0.0730943083
C  C596  1  0.79840000  0.04140000  0.41750000  0.45 0.1019869354
C  C597  1  0.79820000  0.04240000  0.45790000  0.45 -0.185200142
C  C598  1  0.76070000  0.05660000  0.47759000  0.45 0.1112069272
C  C599  1  0.72340000  0.06970000  0.45700000  0.45 -0.199671434
C  C600  1  0.72360000  0.06870000  0.41670000  0.45 0.0730943083
C  C601  1  0.54140000  0.29840000  0.08250000  0.45 0.1019869354
C  C602  1  0.54240000  0.29820000  0.04210000  0.45 -0.185200142
C  C603  1  0.55660000  0.26070000  0.02241000  0.45 0.1112069272
C  C604  1  0.56970000  0.22340000  0.04300000  0.45 -0.199671434
C  C605  1  0.56870000  0.22360000  0.08330000  0.45 0.0730943083
C  C606  1  0.45860000  0.70160000  0.08250000  0.45 0.1019869354
C  C607  1  0.45760000  0.70180000  0.04210000  0.45 -0.185200142
C  C608  1  0.44340000  0.73930000  0.02241000  0.45 0.1112069272
C  C609  1  0.43030000  0.77660000  0.04300000  0.45 -0.199671434
C  C610  1  0.43130000  0.77640000  0.08330000  0.45 0.0730943083
C  C611  1  0.29840000  0.45860000  0.08250000  0.45 0.1019869354
C  C612  1  0.29820000  0.45760000  0.04210000  0.45 -0.185200142
C  C613  1  0.26070000  0.44340000  0.02241000  0.45 0.1112069272
C  C614  1  0.22340000  0.43030000  0.04300000  0.45 -0.199671434
C  C615  1  0.22360000  0.43130000  0.08330000  0.45 0.0730943083
C  C616  1  0.70160000  0.54140000  0.08250000  0.45 0.1019869354
C  C617  1  0.70180000  0.54240000  0.04210000  0.45 -0.185200142
C  C618  1  0.73930000  0.55660000  0.02241000  0.45 0.1112069272
C  C619  1  0.77660000  0.56970000  0.04300000  0.45 -0.199671434
C  C620  1  0.77640000  0.56870000  0.08330000  0.45 0.0730943083
C  C621  1  0.04140000  0.20160000  0.58250000  0.45 0.1019869354
C  C622  1  0.04240000  0.20180000  0.54210000  0.45 -0.185200142
C  C623  1  0.05660000  0.23930000  0.52241000  0.45 0.1112069272
C  C624  1  0.06970000  0.27660000  0.54300000  0.45 -0.199671434
C  C625  1  0.06870000  0.27640000  0.58330000  0.45 0.0730943083
C  C626  1  0.95860000  0.79840000  0.58250000  0.45 0.1019869354
C  C627  1  0.95760000  0.79820000  0.54210000  0.45 -0.1813561565
C  C628  1  0.94340000  0.76070000  0.52241000  0.45 0.1112069272
C  C629  1  0.93030000  0.72340000  0.54300000  0.45 -0.199671434
C  C630  1  0.93130000  0.72360000  0.58330000  0.45 0.0730943083
C  C631  1  0.79840000  0.04140000  0.58250000  0.45 0.1019869354
C  C632  1  0.79820000  0.04240000  0.54210000  0.45 -0.185200142
C  C633  1  0.76070000  0.05660000  0.52241000  0.45 0.1112069272
C  C634  1  0.72340000  0.06970000  0.54300000  0.45 -0.199671434
C  C635  1  0.72360000  0.06870000  0.58330000  0.45 0.0730943083
C  C636  1  0.20160000  0.95860000  0.58250000  0.45 0.1019869354
C  C637  1  0.20180000  0.95760000  0.54210000  0.45 -0.1813561565
C  C638  1  0.23930000  0.94340000  0.52241000  0.45 0.1112069272
C  C639  1  0.27660000  0.93030000  0.54300000  0.45 -0.199671434
C  C640  1  0.27640000  0.93130000  0.58330000  0.45 0.0730943083
C  C641  1  0.45860000  0.70160000  0.91750000  0.45 0.1019869354
C  C642  1  0.45760000  0.70180000  0.95790000  0.45 -0.185200142
C  C643  1  0.44340000  0.73930000  0.97759000  0.45 0.1112069272
C  C644  1  0.43030000  0.77660000  0.95700000  0.45 -0.199671434
C  C645  1  0.43130000  0.77640000  0.91670000  0.45 0.0730943083
C  C646  1  0.54140000  0.29840000  0.91750000  0.45 0.1019869354
C  C647  1  0.54240000  0.29820000  0.95790000  0.45 -0.185200142
C  C648  1  0.55660000  0.26070000  0.97759000  0.45 0.1112069272
C  C649  1  0.56970000  0.22340000  0.95700000  0.45 -0.199671434
C  C650  1  0.56870000  0.22360000  0.91670000  0.45 0.0730943083
C  C651  1  0.70160000  0.54140000  0.91750000  0.45 0.1019869354
C  C652  1  0.70180000  0.54240000  0.95790000  0.45 -0.185200142
C  C653  1  0.73930000  0.55660000  0.97759000  0.45 0.1112069272
C  C654  1  0.77660000  0.56970000  0.95700000  0.45 -0.199671434
C  C655  1  0.77640000  0.56870000  0.91670000  0.45 0.0730943083
C  C656  1  0.29840000  0.45860000  0.91750000  0.45 0.1019869354
C  C657  1  0.29820000  0.45760000  0.95790000  0.45 -0.185200142
C  C658  1  0.26070000  0.44340000  0.97759000  0.45 0.1112069272
C  C659  1  0.22340000  0.43030000  0.95700000  0.45 -0.199671434
C  C660  1  0.22360000  0.43130000  0.91670000  0.45 0.0730943083
C  C661  1  0.96310000  0.99460000  0.08210000  0.5 -0.0099268012
C  C662  1  0.96050000  0.99400000  0.04230000  0.5 -0.1198742853
C  C663  1  0.03690000  0.00540000  0.08210000  0.5 -0.0099268012
C  C664  1  0.03950000  0.00600000  0.04230000  0.5 -0.1198742853
C  C665  1  0.00540000  0.96310000  0.08210000  0.5 -0.0099268012
C  C666  1  0.00600000  0.96050000  0.04230000  0.5 -0.1198742853
C  C667  1  0.99460000  0.03690000  0.08210000  0.5 -0.0099268012
C  C668  1  0.99400000  0.03950000  0.04230000  0.5 -0.1198742853
C  C669  1  0.53690000  0.49460000  0.41790000  0.5 -0.0099268012
C  C670  1  0.53950000  0.49400000  0.45770000  0.5 -0.1198742853
C  C671  1  0.46310000  0.50540000  0.41790000  0.5 -0.0099268012
C  C672  1  0.46050000  0.50600000  0.45770000  0.5 -0.1198742853
C  C673  1  0.49460000  0.46310000  0.41790000  0.5 -0.0099268012
C  C674  1  0.49400000  0.46050000  0.45770000  0.5 -0.1198742853
C  C675  1  0.50540000  0.53690000  0.41790000  0.5 -0.0099268012
C  C676  1  0.50600000  0.53950000  0.45770000  0.5 -0.1198742853
C  C677  1  0.03690000  0.00540000  0.91790000  0.5 -0.0099268012
C  C678  1  0.03950000  0.00600000  0.95770000  0.5 -0.1198742853
C  C679  1  0.96310000  0.99460000  0.91790000  0.5 -0.0099268012
C  C680  1  0.96050000  0.99400000  0.95770000  0.5 -0.1198742853
C  C681  1  0.99460000  0.03690000  0.91790000  0.5 -0.0099268012
C  C682  1  0.99400000  0.03950000  0.95770000  0.5 -0.1198742853
C  C683  1  0.00540000  0.96310000  0.91790000  0.5 -0.0099268012
C  C684  1  0.00600000  0.96050000  0.95770000  0.5 -0.1198742853
C  C685  1  0.46310000  0.50540000  0.58210000  0.5 -0.0099268012
C  C686  1  0.46050000  0.50600000  0.54230000  0.5 -0.1198742853
C  C687  1  0.53690000  0.49460000  0.58210000  0.5 -0.0099268012
C  C688  1  0.53950000  0.49400000  0.54230000  0.5 -0.1198742853
C  C689  1  0.50540000  0.53690000  0.58210000  0.5 -0.0099268012
C  C690  1  0.50600000  0.53950000  0.54230000  0.5 -0.1198742853
C  C691  1  0.49460000  0.46310000  0.58210000  0.5 -0.0099268012
C  C692  1  0.49400000  0.46050000  0.54230000  0.5 -0.1198742853
N  N1  1  0.94390000  0.96110000  0.17514000  1.0 -0.3533263204
N  N2  1  0.16880000  0.70140000  0.44060000  1.0 -0.3621487484
N  N3  1  0.05610000  0.03890000  0.17514000  1.0 -0.3533263204
N  N4  1  0.83120000  0.29860000  0.44060000  1.0 -0.3621487484
N  N5  1  0.03890000  0.94390000  0.17514000  1.0 -0.3533263204
N  N6  1  0.29860000  0.16880000  0.44060000  1.0 -0.3621487484
N  N7  1  0.96110000  0.05610000  0.17514000  1.0 -0.3533263204
N  N8  1  0.70140000  0.83120000  0.44060000  1.0 -0.3621487484
N  N9  1  0.55610000  0.46110000  0.32486000  1.0 -0.3533263204
N  N10  1  0.33120000  0.20140000  0.05940000  1.0 -0.3621487484
N  N11  1  0.44390000  0.53890000  0.32486000  1.0 -0.3533263204
N  N12  1  0.66880000  0.79860000  0.05940000  1.0 -0.3621487484
N  N13  1  0.46110000  0.44390000  0.32486000  1.0 -0.3533263204
N  N14  1  0.20140000  0.66880000  0.05940000  1.0 -0.3621487484
N  N15  1  0.53890000  0.55610000  0.32486000  1.0 -0.3533263204
N  N16  1  0.79860000  0.33120000  0.05940000  1.0 -0.3621487484
N  N17  1  0.05610000  0.03890000  0.82486000  1.0 -0.3533263204
N  N18  1  0.83120000  0.29860000  0.55940000  1.0 -0.3621487484
N  N19  1  0.94390000  0.96110000  0.82486000  1.0 -0.3533263204
N  N20  1  0.16880000  0.70140000  0.55940000  1.0 -0.3621487484
N  N21  1  0.96110000  0.05610000  0.82486000  1.0 -0.3533263204
N  N22  1  0.70140000  0.83120000  0.55940000  1.0 -0.3621487484
N  N23  1  0.03890000  0.94390000  0.82486000  1.0 -0.3533263204
N  N24  1  0.29860000  0.16880000  0.55940000  1.0 -0.3621487484
N  N25  1  0.44390000  0.53890000  0.67514000  1.0 -0.3533263204
N  N26  1  0.66880000  0.79860000  0.94060000  1.0 -0.3621487484
N  N27  1  0.55610000  0.46110000  0.67514000  1.0 -0.3533263204
N  N28  1  0.33120000  0.20140000  0.94060000  1.0 -0.3621487484
N  N29  1  0.53890000  0.55610000  0.67514000  1.0 -0.3533263204
N  N30  1  0.79860000  0.33120000  0.94060000  1.0 -0.3621487484
N  N31  1  0.46110000  0.44390000  0.67514000  1.0 -0.3533263204
N  N32  1  0.20140000  0.66880000  0.94060000  1.0 -0.3621487484
N  N33  1  0.00000000  0.00000000  0.10320000  1.0 -0.1105540915
N  N34  1  0.50000000  0.50000000  0.39680000  1.0 -0.1105540915
N  N35  1  0.00000000  0.00000000  0.89680000  1.0 -0.0984862897
N  N36  1  0.50000000  0.50000000  0.60320000  1.0 -0.0984862897
N  N37  1  0.10800000  0.66900000  0.50000000  1.0 -0.3785085135
N  N38  1  0.22410000  0.73730000  0.50000000  1.0 -0.3785085135
N  N39  1  0.89200000  0.33100000  0.50000000  1.0 -0.3785085135
N  N40  1  0.77590000  0.26270000  0.50000000  1.0 -0.3785085135
N  N41  1  0.33100000  0.10800000  0.50000000  1.0 -0.3785085135
N  N42  1  0.26270000  0.22410000  0.50000000  1.0 -0.3785085135
N  N43  1  0.66900000  0.89200000  0.50000000  1.0 -0.3785085135
N  N44  1  0.73730000  0.77590000  0.50000000  1.0 -0.3785085135
N  N45  1  0.39200000  0.16900000  0.00000000  1.0 -0.3785085135
N  N46  1  0.27590000  0.23730000  0.00000000  1.0 -0.3785085135
N  N47  1  0.60800000  0.83100000  0.00000000  1.0 -0.3785085135
N  N48  1  0.72410000  0.76270000  0.00000000  1.0 -0.3785085135
N  N49  1  0.16900000  0.60800000  0.00000000  1.0 -0.3785085135
N  N50  1  0.23730000  0.72410000  0.00000000  1.0 -0.3785085135
N  N51  1  0.83100000  0.39200000  0.00000000  1.0 -0.3785085135
N  N52  1  0.76270000  0.27590000  0.00000000  1.0 -0.3785085135
N  N53  1  0.94550000  0.76110000  0.39694000  0.45 -0.168562231
N  N54  1  0.05450000  0.23890000  0.39694000  0.45 -0.168562231
N  N55  1  0.23890000  0.94550000  0.39694000  0.45 -0.168562231
N  N56  1  0.76110000  0.05450000  0.39694000  0.45 -0.168562231
N  N57  1  0.55450000  0.26110000  0.10306000  0.45 -0.168562231
N  N58  1  0.44550000  0.73890000  0.10306000  0.45 -0.1813561565
N  N59  1  0.26110000  0.44550000  0.10306000  0.45 -0.1813561565
N  N60  1  0.73890000  0.55450000  0.10306000  0.45 -0.1813561565
N  N61  1  0.05450000  0.23890000  0.60306000  0.45 -0.168562231
N  N62  1  0.94550000  0.76110000  0.60306000  0.45 -0.168562231
N  N63  1  0.76110000  0.05450000  0.60306000  0.45 -0.168562231
N  N64  1  0.23890000  0.94550000  0.60306000  0.45 -0.168562231
N  N65  1  0.44550000  0.73890000  0.89694000  0.45 -0.1813561565
N  N66  1  0.55450000  0.26110000  0.89694000  0.45 -0.168562231
N  N67  1  0.73890000  0.55450000  0.89694000  0.45 -0.1813561565
N  N68  1  0.26110000  0.44550000  0.89694000  0.45 -0.1813561565
O  O1  1  0.92220000  0.70790000  0.23454000  1.0 -0.4767337066
O  O2  1  0.93860000  0.76580000  0.27278000  1.0 -0.4767337066
O  O3  1  0.95200000  0.65140000  0.30720000  1.0 -0.5070501768
O  O4  1  0.96780000  0.71370000  0.34120000  1.0 -0.450618183
O  O5  1  0.84860000  0.67800000  0.30020000  1.0 -0.4975572579
O  O6  1  0.87160000  0.73490000  0.33948000  1.0 -0.450618183
O  O7  1  0.92050000  0.82080000  0.34110000  1.0 -0.6887566202
O  O8  1  0.07780000  0.29210000  0.23454000  1.0 -0.4767337066
O  O9  1  0.06140000  0.23420000  0.27278000  1.0 -0.4767337066
O  O10  1  0.04800000  0.34860000  0.30720000  1.0 -0.5070501768
O  O11  1  0.03220000  0.28630000  0.34120000  1.0 -0.450618183
O  O12  1  0.15140000  0.32200000  0.30020000  1.0 -0.4975572579
O  O13  1  0.12840000  0.26510000  0.33948000  1.0 -0.450618183
O  O14  1  0.07950000  0.17920000  0.34110000  1.0 -0.6887566202
O  O15  1  0.29210000  0.92220000  0.23454000  1.0 -0.4767337066
O  O16  1  0.23420000  0.93860000  0.27278000  1.0 -0.4767337066
O  O17  1  0.34860000  0.95200000  0.30720000  1.0 -0.5070501768
O  O18  1  0.28630000  0.96780000  0.34120000  1.0 -0.450618183
O  O19  1  0.32200000  0.84860000  0.30020000  1.0 -0.4975572579
O  O20  1  0.26510000  0.87160000  0.33948000  1.0 -0.450618183
O  O21  1  0.17920000  0.92050000  0.34110000  1.0 -0.6887566202
O  O22  1  0.70790000  0.07780000  0.23454000  1.0 -0.4767337066
O  O23  1  0.76580000  0.06140000  0.27278000  1.0 -0.4767337066
O  O24  1  0.65140000  0.04800000  0.30720000  1.0 -0.5070501768
O  O25  1  0.71370000  0.03220000  0.34120000  1.0 -0.450618183
O  O26  1  0.67800000  0.15140000  0.30020000  1.0 -0.4975572579
O  O27  1  0.73490000  0.12840000  0.33948000  1.0 -0.450618183
O  O28  1  0.82080000  0.07950000  0.34110000  1.0 -0.6887566202
O  O29  1  0.57780000  0.20790000  0.26546000  1.0 -0.4767337066
O  O30  1  0.56140000  0.26580000  0.22722000  1.0 -0.4767337066
O  O31  1  0.54800000  0.15140000  0.19280000  1.0 -0.5070501768
O  O32  1  0.53220000  0.21370000  0.15880000  1.0 -0.450618183
O  O33  1  0.65140000  0.17800000  0.19980000  1.0 -0.4975572579
O  O34  1  0.62840000  0.23490000  0.16052000  1.0 -0.450618183
O  O35  1  0.57950000  0.32080000  0.15890000  1.0 -0.6887566202
O  O36  1  0.42220000  0.79210000  0.26546000  1.0 -0.4767337066
O  O37  1  0.43860000  0.73420000  0.22722000  1.0 -0.4767337066
O  O38  1  0.45200000  0.84860000  0.19280000  1.0 -0.5070501768
O  O39  1  0.46780000  0.78630000  0.15880000  1.0 -0.450618183
O  O40  1  0.34860000  0.82200000  0.19980000  1.0 -0.4975572579
O  O41  1  0.37160000  0.76510000  0.16052000  1.0 -0.450618183
O  O42  1  0.42050000  0.67920000  0.15890000  1.0 -0.6887566202
O  O43  1  0.20790000  0.42220000  0.26546000  1.0 -0.4767337066
O  O44  1  0.26580000  0.43860000  0.22722000  1.0 -0.4767337066
O  O45  1  0.15140000  0.45200000  0.19280000  1.0 -0.5070501768
O  O46  1  0.21370000  0.46780000  0.15880000  1.0 -0.450618183
O  O47  1  0.17800000  0.34860000  0.19980000  1.0 -0.4975572579
O  O48  1  0.23490000  0.37160000  0.16052000  1.0 -0.450618183
O  O49  1  0.32080000  0.42050000  0.15890000  1.0 -0.6887566202
O  O50  1  0.79210000  0.57780000  0.26546000  1.0 -0.4767337066
O  O51  1  0.73420000  0.56140000  0.22722000  1.0 -0.4767337066
O  O52  1  0.84860000  0.54800000  0.19280000  1.0 -0.5070501768
O  O53  1  0.78630000  0.53220000  0.15880000  1.0 -0.450618183
O  O54  1  0.82200000  0.65140000  0.19980000  1.0 -0.4975572579
O  O55  1  0.76510000  0.62840000  0.16052000  1.0 -0.450618183
O  O56  1  0.67920000  0.57950000  0.15890000  1.0 -0.6887566202
O  O57  1  0.07780000  0.29210000  0.76546000  1.0 -0.4767337066
O  O58  1  0.06140000  0.23420000  0.72722000  1.0 -0.4767337066
O  O59  1  0.04800000  0.34860000  0.69280000  1.0 -0.5070501768
O  O60  1  0.03220000  0.28630000  0.65880000  1.0 -0.450618183
O  O61  1  0.15140000  0.32200000  0.69980000  1.0 -0.4975572579
O  O62  1  0.12840000  0.26510000  0.66052000  1.0 -0.450618183
O  O63  1  0.07950000  0.17920000  0.65890000  1.0 -0.6887566202
O  O64  1  0.92220000  0.70790000  0.76546000  1.0 -0.4767337066
O  O65  1  0.93860000  0.76580000  0.72722000  1.0 -0.4767337066
O  O66  1  0.95200000  0.65140000  0.69280000  1.0 -0.5070501768
O  O67  1  0.96780000  0.71370000  0.65880000  1.0 -0.450618183
O  O68  1  0.84860000  0.67800000  0.69980000  1.0 -0.4975572579
O  O69  1  0.87160000  0.73490000  0.66052000  1.0 -0.450618183
O  O70  1  0.92050000  0.82080000  0.65890000  1.0 -0.6887566202
O  O71  1  0.70790000  0.07780000  0.76546000  1.0 -0.4767337066
O  O72  1  0.76580000  0.06140000  0.72722000  1.0 -0.4767337066
O  O73  1  0.65140000  0.04800000  0.69280000  1.0 -0.5070501768
O  O74  1  0.71370000  0.03220000  0.65880000  1.0 -0.450618183
O  O75  1  0.67800000  0.15140000  0.69980000  1.0 -0.4975572579
O  O76  1  0.73490000  0.12840000  0.66052000  1.0 -0.450618183
O  O77  1  0.82080000  0.07950000  0.65890000  1.0 -0.6887566202
O  O78  1  0.29210000  0.92220000  0.76546000  1.0 -0.4767337066
O  O79  1  0.23420000  0.93860000  0.72722000  1.0 -0.4767337066
O  O80  1  0.34860000  0.95200000  0.69280000  1.0 -0.5070501768
O  O81  1  0.28630000  0.96780000  0.65880000  1.0 -0.450618183
O  O82  1  0.32200000  0.84860000  0.69980000  1.0 -0.4975572579
O  O83  1  0.26510000  0.87160000  0.66052000  1.0 -0.450618183
O  O84  1  0.17920000  0.92050000  0.65890000  1.0 -0.6887566202
O  O85  1  0.42220000  0.79210000  0.73454000  1.0 -0.4767337066
O  O86  1  0.43860000  0.73420000  0.77278000  1.0 -0.4767337066
O  O87  1  0.45200000  0.84860000  0.80720000  1.0 -0.5070501768
O  O88  1  0.46780000  0.78630000  0.84120000  1.0 -0.450618183
O  O89  1  0.34860000  0.82200000  0.80020000  1.0 -0.4975572579
O  O90  1  0.37160000  0.76510000  0.83948000  1.0 -0.450618183
O  O91  1  0.42050000  0.67920000  0.84110000  1.0 -0.6887566202
O  O92  1  0.57780000  0.20790000  0.73454000  1.0 -0.4767337066
O  O93  1  0.56140000  0.26580000  0.77278000  1.0 -0.4767337066
O  O94  1  0.54800000  0.15140000  0.80720000  1.0 -0.5070501768
O  O95  1  0.53220000  0.21370000  0.84120000  1.0 -0.450618183
O  O96  1  0.65140000  0.17800000  0.80020000  1.0 -0.4975572579
O  O97  1  0.62840000  0.23490000  0.83948000  1.0 -0.450618183
O  O98  1  0.57950000  0.32080000  0.84110000  1.0 -0.6887566202
O  O99  1  0.79210000  0.57780000  0.73454000  1.0 -0.4767337066
O  O100  1  0.73420000  0.56140000  0.77278000  1.0 -0.4767337066
O  O101  1  0.84860000  0.54800000  0.80720000  1.0 -0.5070501768
O  O102  1  0.78630000  0.53220000  0.84120000  1.0 -0.450618183
O  O103  1  0.82200000  0.65140000  0.80020000  1.0 -0.4975572579
O  O104  1  0.76510000  0.62840000  0.83948000  1.0 -0.450618183
O  O105  1  0.67920000  0.57950000  0.84110000  1.0 -0.6887566202
O  O106  1  0.20790000  0.42220000  0.73454000  1.0 -0.4767337066
O  O107  1  0.26580000  0.43860000  0.77278000  1.0 -0.4767337066
O  O108  1  0.15140000  0.45200000  0.80720000  1.0 -0.5070501768
O  O109  1  0.21370000  0.46780000  0.84120000  1.0 -0.450618183
O  O110  1  0.17800000  0.34860000  0.80020000  1.0 -0.4975572579
O  O111  1  0.23490000  0.37160000  0.83948000  1.0 -0.450618183
O  O112  1  0.32080000  0.42050000  0.84110000  1.0 -0.6887566202
O  O113  1  0.89099000  0.60901000  0.25000000  1.0 -0.8183248208
O  O114  1  0.10901000  0.39099000  0.25000000  1.0 -0.8264439867
O  O115  1  0.39099000  0.89099000  0.25000000  1.0 -0.8183248208
O  O116  1  0.60901000  0.10901000  0.25000000  1.0 -0.8264439867
O  O117  1  0.10901000  0.39099000  0.75000000  1.0 -0.8183248208
O  O118  1  0.89099000  0.60901000  0.75000000  1.0 -0.8183248208
O  O119  1  0.60901000  0.10901000  0.75000000  1.0 -0.8183248208
O  O120  1  0.39099000  0.89099000  0.75000000  1.0 -0.8183248208
