# DDEC6 charges by PACMAN v1.1 (https://github.com/mtap-research/PACMAN-charge/)
data_2019[Zn][utp]3[ASR]1
_chemical_formula_sum              "Zn8 H168 C216 N56"
_cell_length_a       9.55
_cell_length_b       27.8917
_cell_length_c       28.6596
_cell_angle_alpha    90
_cell_angle_beta     90
_cell_angle_gamma    90

_symmetry_space_group_name_H-M    "P 1"
_symmetry_Int_Tables_number       1

loop_
  _symmetry_equiv_pos_as_xyz
  'x, y, z'

loop_
  _atom_site_type_symbol
  _atom_site_label
  _atom_site_symmetry_multiplicity
  _atom_site_fract_x
  _atom_site_fract_y
  _atom_site_fract_z
  _atom_site_occupancy
  _atom_site_charge
Zn  Zn1       1.0  0.09816  0.48998  0.86904  1.0000 0.4336239353
Zn  Zn2       1.0  0.40184  0.98998  0.63096  1.0000 0.4336239353
Zn  Zn3       1.0  0.90184  0.48998  0.36904  1.0000 0.4336239353
Zn  Zn4       1.0  0.59816  0.98998  0.13096  1.0000 0.4336239353
Zn  Zn5       1.0  0.09816  0.51002  0.63096  1.0000 0.4336239353
Zn  Zn6       1.0  0.40184  0.01002  0.86904  1.0000 0.4336239353
Zn  Zn7       1.0  0.90184  0.51002  0.13096  1.0000 0.4362735406
Zn  Zn8       1.0  0.59816  0.01002  0.36904  1.0000 0.4336239353
H   H1        1.0  0.50400  0.69850  0.05820  1.0000 0.1192948273
H   H2        1.0  0.59490  0.77440  0.04700  1.0000 0.1192948273
H   H3        1.0  0.76180  0.83850  0.05190  1.0000 0.1192948273
H   H4        1.0  0.51100  0.88500  0.15180  1.0000 0.1029403911
H   H5        1.0  0.22430  0.69630  0.07570  1.0000 0.1192948273
H   H6        1.0  0.78680  0.92510  0.05910  1.0000 0.1123262014
H   H7        1.0  0.10440  0.66140  0.01530  1.0000 0.1192948273
H   H8        1.0  0.65160  0.64990  0.16620  1.0000 0.1123262014
H   H9        1.0  0.52280  0.80470  0.18190  1.0000 0.1192948273
H   H10       1.0  0.79800  0.54390  0.27760  1.0000 0.1029403911
H   H11       1.0  0.25330  0.53330  0.05190  1.0000 0.1123262014
H   H12       1.0  0.42920  0.72890  0.19160  1.0000 0.1274172173
H   H13       1.0  0.38440  0.56930  0.10990  1.0000 0.1123262014
H   H14       1.0  0.23640  0.52590  0.96270  1.0000 0.1029403911
H   H15       1.0  0.73150  0.60860  0.23100  1.0000 0.1123262014
H   H16       1.0  0.86240  0.55710  0.91670  1.0000 0.1192948273
H   H17       1.0  0.90220  0.60510  0.98490  1.0000 0.1192948273
H   H18       1.0  0.34180  0.56660  0.25800  1.0000 0.1192948273
H   H19       1.0  0.26420  0.60700  0.19260  1.0000 0.1192948273
H   H20       1.0  0.41930  0.54810  0.33210  1.0000 0.1192948273
H   H21       1.0  0.57870  0.50490  0.38440  1.0000 0.1123262014
H   H22       1.0  0.99600  0.19850  0.44180  1.0000 0.1192948273
H   H23       1.0  0.90510  0.27440  0.45300  1.0000 0.1192948273
H   H24       1.0  0.73820  0.33850  0.44810  1.0000 0.1192948273
H   H25       1.0  0.98900  0.38500  0.34820  1.0000 0.1029403911
H   H26       1.0  0.27570  0.19630  0.42430  1.0000 0.1192948273
H   H27       1.0  0.71320  0.42510  0.44090  1.0000 0.1123262014
H   H28       1.0  0.39560  0.16140  0.48470  1.0000 0.1192948273
H   H29       1.0  0.84840  0.14990  0.33380  1.0000 0.1123262014
H   H30       1.0  0.97720  0.30470  0.31810  1.0000 0.1192948273
H   H31       1.0  0.70200  0.04390  0.22240  1.0000 0.1029403911
H   H32       1.0  0.24670  0.03330  0.44810  1.0000 0.1123262014
H   H33       1.0  0.07080  0.22890  0.30840  1.0000 0.1274172173
H   H34       1.0  0.11560  0.06930  0.39010  1.0000 0.1123262014
H   H35       1.0  0.26360  0.02590  0.53730  1.0000 0.1029403911
H   H36       1.0  0.76850  0.10860  0.26900  1.0000 0.1123262014
H   H37       1.0  0.63760  0.05710  0.58330  1.0000 0.1192948273
H   H38       1.0  0.59780  0.10510  0.51510  1.0000 0.1192948273
H   H39       1.0  0.15820  0.06660  0.24200  1.0000 0.1192948273
H   H40       1.0  0.23580  0.10700  0.30740  1.0000 0.1192948273
H   H41       1.0  0.08070  0.04810  0.16790  1.0000 0.1192948273
H   H42       1.0  0.92130  0.00490  0.11560  1.0000 0.1123262014
H   H43       1.0  0.49600  0.69850  0.55820  1.0000 0.1192948273
H   H44       1.0  0.40510  0.77440  0.54700  1.0000 0.1192948273
H   H45       1.0  0.23820  0.83850  0.55190  1.0000 0.1192948273
H   H46       1.0  0.48900  0.88500  0.65180  1.0000 0.1029403911
H   H47       1.0  0.77570  0.69630  0.57570  1.0000 0.1192948273
H   H48       1.0  0.21320  0.92510  0.55910  1.0000 0.1123262014
H   H49       1.0  0.89560  0.66140  0.51530  1.0000 0.1192948273
H   H50       1.0  0.34840  0.64990  0.66620  1.0000 0.1123262014
H   H51       1.0  0.47720  0.80470  0.68190  1.0000 0.1192948273
H   H52       1.0  0.20200  0.54390  0.77760  1.0000 0.1029403911
H   H53       1.0  0.74670  0.53330  0.55190  1.0000 0.1123262014
H   H54       1.0  0.57080  0.72890  0.69160  1.0000 0.1274172173
H   H55       1.0  0.61560  0.56930  0.60990  1.0000 0.1123262014
H   H56       1.0  0.76360  0.52590  0.46270  1.0000 0.1029403911
H   H57       1.0  0.26850  0.60860  0.73100  1.0000 0.1123262014
H   H58       1.0  0.13760  0.55710  0.41670  1.0000 0.1192948273
H   H59       1.0  0.09780  0.60510  0.48490  1.0000 0.1192948273
H   H60       1.0  0.65820  0.56660  0.75800  1.0000 0.1192948273
H   H61       1.0  0.73580  0.60700  0.69260  1.0000 0.1192948273
H   H62       1.0  0.58070  0.54810  0.83210  1.0000 0.1192948273
H   H63       1.0  0.42130  0.50490  0.88440  1.0000 0.1123262014
H   H64       1.0  0.00400  0.19850  0.94180  1.0000 0.1192948273
H   H65       1.0  0.09490  0.27440  0.95300  1.0000 0.1192948273
H   H66       1.0  0.26180  0.33850  0.94810  1.0000 0.1192948273
H   H67       1.0  0.01100  0.38500  0.84820  1.0000 0.1029403911
H   H68       1.0  0.72430  0.19630  0.92430  1.0000 0.1192948273
H   H69       1.0  0.28680  0.42510  0.94090  1.0000 0.1123262014
H   H70       1.0  0.60440  0.16140  0.98470  1.0000 0.1192948273
H   H71       1.0  0.15160  0.14990  0.83380  1.0000 0.1123262014
H   H72       1.0  0.02280  0.30470  0.81810  1.0000 0.1192948273
H   H73       1.0  0.29800  0.04390  0.72240  1.0000 0.1029403911
H   H74       1.0  0.75330  0.03330  0.94810  1.0000 0.1123262014
H   H75       1.0  0.92920  0.22890  0.80840  1.0000 0.1274172173
H   H76       1.0  0.88440  0.06930  0.89010  1.0000 0.1123262014
H   H77       1.0  0.73640  0.02590  0.03730  1.0000 0.1029403911
H   H78       1.0  0.23150  0.10860  0.76900  1.0000 0.1123262014
H   H79       1.0  0.36240  0.05710  0.08330  1.0000 0.1192948273
H   H80       1.0  0.40220  0.10510  0.01510  1.0000 0.1192948273
H   H81       1.0  0.84180  0.06660  0.74200  1.0000 0.1192948273
H   H82       1.0  0.76420  0.10700  0.80740  1.0000 0.1192948273
H   H83       1.0  0.91930  0.04810  0.66790  1.0000 0.1192948273
H   H84       1.0  0.07870  0.00490  0.61560  1.0000 0.1123262014
H   H85       1.0  0.50400  0.30150  0.44180  1.0000 0.1192948273
H   H86       1.0  0.59490  0.22560  0.45300  1.0000 0.1192948273
H   H87       1.0  0.76180  0.16150  0.44810  1.0000 0.1192948273
H   H88       1.0  0.51100  0.11500  0.34820  1.0000 0.1029403911
H   H89       1.0  0.22430  0.30370  0.42430  1.0000 0.1192948273
H   H90       1.0  0.78680  0.07490  0.44090  1.0000 0.1123262014
H   H91       1.0  0.10440  0.33860  0.48470  1.0000 0.1192948273
H   H92       1.0  0.65160  0.35010  0.33380  1.0000 0.1123262014
H   H93       1.0  0.52280  0.19530  0.31810  1.0000 0.1192948273
H   H94       1.0  0.79800  0.45610  0.22240  1.0000 0.1029403911
H   H95       1.0  0.25330  0.46670  0.44810  1.0000 0.1123262014
H   H96       1.0  0.42920  0.27110  0.30840  1.0000 0.1274172173
H   H97       1.0  0.38440  0.43070  0.39010  1.0000 0.1123262014
H   H98       1.0  0.23640  0.47410  0.53730  1.0000 0.1029403911
H   H99       1.0  0.73150  0.39140  0.26900  1.0000 0.1123262014
H   H100      1.0  0.86240  0.44290  0.58330  1.0000 0.1192948273
H   H101      1.0  0.90220  0.39490  0.51510  1.0000 0.1192948273
H   H102      1.0  0.34180  0.43340  0.24200  1.0000 0.1192948273
H   H103      1.0  0.26420  0.39300  0.30740  1.0000 0.1192948273
H   H104      1.0  0.41930  0.45190  0.16790  1.0000 0.1192948273
H   H105      1.0  0.57870  0.49510  0.11560  1.0000 0.1123262014
H   H106      1.0  0.99600  0.80150  0.05820  1.0000 0.1192948273
H   H107      1.0  0.90510  0.72560  0.04700  1.0000 0.1192948273
H   H108      1.0  0.73820  0.66150  0.05190  1.0000 0.1192948273
H   H109      1.0  0.98900  0.61500  0.15180  1.0000 0.1029403911
H   H110      1.0  0.27570  0.80370  0.07570  1.0000 0.1192948273
H   H111      1.0  0.71320  0.57490  0.05910  1.0000 0.1123262014
H   H112      1.0  0.39560  0.83860  0.01530  1.0000 0.1192948273
H   H113      1.0  0.84840  0.85010  0.16620  1.0000 0.1123262014
H   H114      1.0  0.97720  0.69530  0.18190  1.0000 0.1192948273
H   H115      1.0  0.70200  0.95610  0.27760  1.0000 0.1029403911
H   H116      1.0  0.24670  0.96670  0.05190  1.0000 0.1123262014
H   H117      1.0  0.07080  0.77110  0.19160  1.0000 0.1274172173
H   H118      1.0  0.11560  0.93070  0.10990  1.0000 0.1123262014
H   H119      1.0  0.26360  0.97410  0.96270  1.0000 0.1029403911
H   H120      1.0  0.76850  0.89140  0.23100  1.0000 0.1123262014
H   H121      1.0  0.63760  0.94290  0.91670  1.0000 0.1192948273
H   H122      1.0  0.59780  0.89490  0.98490  1.0000 0.1192948273
H   H123      1.0  0.15820  0.93340  0.25800  1.0000 0.1192948273
H   H124      1.0  0.23580  0.89300  0.19260  1.0000 0.1192948273
H   H125      1.0  0.08070  0.95190  0.33210  1.0000 0.1192948273
H   H126      1.0  0.92130  0.99510  0.38440  1.0000 0.1123262014
H   H127      1.0  0.49600  0.30150  0.94180  1.0000 0.1192948273
H   H128      1.0  0.40510  0.22560  0.95300  1.0000 0.1192948273
H   H129      1.0  0.23820  0.16150  0.94810  1.0000 0.1192948273
H   H130      1.0  0.48900  0.11500  0.84820  1.0000 0.1029403911
H   H131      1.0  0.77570  0.30370  0.92430  1.0000 0.1192948273
H   H132      1.0  0.21320  0.07490  0.94090  1.0000 0.1123262014
H   H133      1.0  0.89560  0.33860  0.98470  1.0000 0.1192948273
H   H134      1.0  0.34840  0.35010  0.83380  1.0000 0.1123262014
H   H135      1.0  0.47720  0.19530  0.81810  1.0000 0.1192948273
H   H136      1.0  0.20200  0.45610  0.72240  1.0000 0.1029403911
H   H137      1.0  0.74670  0.46670  0.94810  1.0000 0.1123262014
H   H138      1.0  0.57080  0.27110  0.80840  1.0000 0.1274172173
H   H139      1.0  0.61560  0.43070  0.89010  1.0000 0.1123262014
H   H140      1.0  0.76360  0.47410  0.03730  1.0000 0.1029403911
H   H141      1.0  0.26850  0.39140  0.76900  1.0000 0.1123262014
H   H142      1.0  0.13760  0.44290  0.08330  1.0000 0.1192948273
H   H143      1.0  0.09780  0.39490  0.01510  1.0000 0.1192948273
H   H144      1.0  0.65820  0.43340  0.74200  1.0000 0.1192948273
H   H145      1.0  0.73580  0.39300  0.80740  1.0000 0.1192948273
H   H146      1.0  0.58070  0.45190  0.66790  1.0000 0.1192948273
H   H147      1.0  0.42130  0.49510  0.61560  1.0000 0.1123262014
H   H148      1.0  0.00400  0.80150  0.55820  1.0000 0.1192948273
H   H149      1.0  0.09490  0.72560  0.54700  1.0000 0.1192948273
H   H150      1.0  0.26180  0.66150  0.55190  1.0000 0.1192948273
H   H151      1.0  0.01100  0.61500  0.65180  1.0000 0.1029403911
H   H152      1.0  0.72430  0.80370  0.57570  1.0000 0.1192948273
H   H153      1.0  0.28680  0.57490  0.55910  1.0000 0.1123262014
H   H154      1.0  0.60440  0.83860  0.51530  1.0000 0.1192948273
H   H155      1.0  0.15160  0.85010  0.66620  1.0000 0.1123262014
H   H156      1.0  0.02280  0.69530  0.68190  1.0000 0.1192948273
H   H157      1.0  0.29800  0.95610  0.77760  1.0000 0.1029403911
H   H158      1.0  0.75330  0.96670  0.55190  1.0000 0.1123262014
H   H159      1.0  0.92920  0.77110  0.69160  1.0000 0.1274172173
H   H160      1.0  0.88440  0.93070  0.60990  1.0000 0.1123262014
H   H161      1.0  0.73640  0.97410  0.46270  1.0000 0.1029403911
H   H162      1.0  0.23150  0.89140  0.73100  1.0000 0.1123262014
H   H163      1.0  0.36240  0.94290  0.41670  1.0000 0.1192948273
H   H164      1.0  0.40220  0.89490  0.48490  1.0000 0.1192948273
H   H165      1.0  0.84180  0.93340  0.75800  1.0000 0.1192948273
H   H166      1.0  0.76420  0.89300  0.69260  1.0000 0.1192948273
H   H167      1.0  0.91930  0.95190  0.83210  1.0000 0.1192948273
H   H168      1.0  0.07870  0.99510  0.88440  1.0000 0.1123262014
C   C1        1.0  0.16830  0.59395  0.02706  1.0000 0.1274172173
C   C2        1.0  0.50760  0.71995  0.08303  1.0000 -0.2010146026
C   C3        1.0  0.56290  0.76516  0.07625  1.0000 -0.1833243274
C   C4        1.0  0.57000  0.79633  0.11332  1.0000 0.1192948273
C   C5        1.0  0.32120  0.63690  0.09802  1.0000 0.1576029639
C   C6        1.0  0.71520  0.85822  0.07293  1.0000 -0.1188033389
C   C7        1.0  0.57720  0.88437  0.12798  1.0000 0.0284736862
C   C8        1.0  0.23380  0.66358  0.07026  1.0000 -0.1913479413
C   C9        1.0  0.45770  0.70607  0.12621  1.0000 0.1576029639
C   C10       1.0  0.54350  0.58241  0.25009  1.0000 0.1192948273
C   C11       1.0  0.72800  0.90597  0.07698  1.0000 -0.0715179012
C   C12       1.0  0.44970  0.63263  0.17290  1.0000 0.1576029639
C   C13       1.0  0.16020  0.64261  0.03457  1.0000 -0.1708896479
C   C14       1.0  0.58860  0.63290  0.18454  1.0000 -0.1833243274
C   C15       1.0  0.51930  0.78336  0.15704  1.0000 -0.1913479413
C   C16       1.0  0.72320  0.53975  0.29797  1.0000 0.0087189246
C   C17       1.0  0.25000  0.56636  0.05590  1.0000 -0.2010146026
C   C18       1.0  0.46350  0.73798  0.16260  1.0000 -0.1833243274
C   C19       1.0  0.32730  0.58797  0.09087  1.0000 -0.2010146026
C   C20       1.0  0.14830  0.53970  0.95945  1.0000 0.0536438529
C   C21       1.0  0.63700  0.60800  0.22328  1.0000 -0.1913479413
C   C22       1.0  0.94360  0.55700  0.93457  1.0000 -0.0715179012
C   C23       1.0  0.96470  0.58330  0.97196  1.0000 -0.1188033389
C   C24       1.0  0.40550  0.58290  0.23920  1.0000 -0.1833243274
C   C25       1.0  0.35890  0.60760  0.20020  1.0000 -0.1913479413
C   C26       1.0  0.51410  0.54240  0.32720  1.0000 -0.1188033389
C   C27       1.0  0.60400  0.51850  0.35600  1.0000 -0.0479260341
C   C28       1.0  0.33170  0.09395  0.47294  1.0000 0.1274172173
C   C29       1.0  0.99240  0.21995  0.41697  1.0000 -0.2010146026
C   C30       1.0  0.93710  0.26516  0.42375  1.0000 -0.1833243274
C   C31       1.0  0.93000  0.29633  0.38668  1.0000 0.1192948273
C   C32       1.0  0.17880  0.13690  0.40198  1.0000 0.1576029639
C   C33       1.0  0.78480  0.35822  0.42707  1.0000 -0.1188033389
C   C34       1.0  0.92280  0.38437  0.37202  1.0000 0.0284736862
C   C35       1.0  0.26620  0.16358  0.42974  1.0000 -0.1833243274
C   C36       1.0  0.04230  0.20607  0.37379  1.0000 0.1576029639
C   C37       1.0  0.95650  0.08241  0.24991  1.0000 0.1192948273
C   C38       1.0  0.77200  0.40597  0.42302  1.0000 -0.0715179012
C   C39       1.0  0.05030  0.13263  0.32710  1.0000 0.1576029639
C   C40       1.0  0.33980  0.14261  0.46543  1.0000 -0.1708896479
C   C41       1.0  0.91140  0.13290  0.31546  1.0000 -0.1833243274
C   C42       1.0  0.98070  0.28336  0.34296  1.0000 -0.1913479413
C   C43       1.0  0.77680  0.03975  0.20203  1.0000 0.0087189246
C   C44       1.0  0.25000  0.06636  0.44410  1.0000 -0.2010146026
C   C45       1.0  0.03650  0.23798  0.33740  1.0000 -0.1833243274
C   C46       1.0  0.17270  0.08797  0.40913  1.0000 -0.2010146026
C   C47       1.0  0.35170  0.03970  0.54055  1.0000 0.0536438529
C   C48       1.0  0.86300  0.10800  0.27672  1.0000 -0.1913479413
C   C49       1.0  0.55640  0.05700  0.56543  1.0000 -0.0715179012
C   C50       1.0  0.53530  0.08330  0.52804  1.0000 -0.1188033389
C   C51       1.0  0.09450  0.08290  0.26080  1.0000 -0.1708896479
C   C52       1.0  0.14110  0.10760  0.29980  1.0000 -0.1913479413
C   C53       1.0  0.98590  0.04240  0.17280  1.0000 -0.114995931
C   C54       1.0  0.89600  0.01850  0.14400  1.0000 -0.0479260341
C   C55       1.0  0.83170  0.59395  0.52706  1.0000 0.1274172173
C   C56       1.0  0.49240  0.71995  0.58303  1.0000 -0.2010146026
C   C57       1.0  0.43710  0.76516  0.57625  1.0000 -0.1833243274
C   C58       1.0  0.43000  0.79633  0.61332  1.0000 0.1192948273
C   C59       1.0  0.67880  0.63690  0.59802  1.0000 0.1576029639
C   C60       1.0  0.28480  0.85822  0.57293  1.0000 -0.1188033389
C   C61       1.0  0.42280  0.88437  0.62798  1.0000 0.0284736862
C   C62       1.0  0.76620  0.66358  0.57026  1.0000 -0.1833243274
C   C63       1.0  0.54230  0.70607  0.62621  1.0000 0.1576029639
C   C64       1.0  0.45650  0.58241  0.75009  1.0000 0.1192948273
C   C65       1.0  0.27200  0.90597  0.57698  1.0000 -0.0715179012
C   C66       1.0  0.55030  0.63263  0.67290  1.0000 0.1576029639
C   C67       1.0  0.83980  0.64261  0.53457  1.0000 -0.1708896479
C   C68       1.0  0.41140  0.63290  0.68454  1.0000 -0.1833243274
C   C69       1.0  0.48070  0.78336  0.65704  1.0000 -0.1913479413
C   C70       1.0  0.27680  0.53975  0.79797  1.0000 0.0087189246
C   C71       1.0  0.75000  0.56636  0.55590  1.0000 -0.2010146026
C   C72       1.0  0.53650  0.73798  0.66260  1.0000 -0.1833243274
C   C73       1.0  0.67270  0.58797  0.59087  1.0000 -0.2010146026
C   C74       1.0  0.85170  0.53970  0.45945  1.0000 0.0536438529
C   C75       1.0  0.36300  0.60800  0.72328  1.0000 -0.1913479413
C   C76       1.0  0.05640  0.55700  0.43457  1.0000 -0.0715179012
C   C77       1.0  0.03530  0.58330  0.47196  1.0000 -0.1188033389
C   C78       1.0  0.59450  0.58290  0.73920  1.0000 -0.1708896479
C   C79       1.0  0.64110  0.60760  0.70020  1.0000 -0.1913479413
C   C80       1.0  0.48590  0.54240  0.82720  1.0000 -0.1188033389
C   C81       1.0  0.39600  0.51850  0.85600  1.0000 -0.0479260341
C   C82       1.0  0.66830  0.09395  0.97294  1.0000 0.1274172173
C   C83       1.0  0.00760  0.21995  0.91697  1.0000 -0.2010146026
C   C84       1.0  0.06290  0.26516  0.92375  1.0000 -0.1833243274
C   C85       1.0  0.07000  0.29633  0.88668  1.0000 0.1192948273
C   C86       1.0  0.82120  0.13690  0.90198  1.0000 0.1576029639
C   C87       1.0  0.21520  0.35822  0.92707  1.0000 -0.1188033389
C   C88       1.0  0.07720  0.38437  0.87202  1.0000 0.0284736862
C   C89       1.0  0.73380  0.16358  0.92974  1.0000 -0.1833243274
C   C90       1.0  0.95770  0.20607  0.87379  1.0000 0.1576029639
C   C91       1.0  0.04350  0.08241  0.74991  1.0000 0.1192948273
C   C92       1.0  0.22800  0.40597  0.92302  1.0000 -0.0715179012
C   C93       1.0  0.94970  0.13263  0.82710  1.0000 0.1576029639
C   C94       1.0  0.66020  0.14261  0.96543  1.0000 -0.1708896479
C   C95       1.0  0.08860  0.13290  0.81546  1.0000 -0.1833243274
C   C96       1.0  0.01930  0.28336  0.84296  1.0000 -0.1913479413
C   C97       1.0  0.22320  0.03975  0.70203  1.0000 0.0087189246
C   C98       1.0  0.75000  0.06636  0.94410  1.0000 -0.2010146026
C   C99       1.0  0.96350  0.23798  0.83740  1.0000 -0.1833243274
C   C100      1.0  0.82730  0.08797  0.90913  1.0000 -0.2010146026
C   C101      1.0  0.64830  0.03970  0.04055  1.0000 0.0536438529
C   C102      1.0  0.13700  0.10800  0.77672  1.0000 -0.1913479413
C   C103      1.0  0.44360  0.05700  0.06543  1.0000 -0.0715179012
C   C104      1.0  0.46470  0.08330  0.02804  1.0000 -0.1188033389
C   C105      1.0  0.90550  0.08290  0.76080  1.0000 -0.1708896479
C   C106      1.0  0.85890  0.10760  0.79980  1.0000 -0.1913479413
C   C107      1.0  0.01410  0.04240  0.67280  1.0000 -0.1188033389
C   C108      1.0  0.10400  0.01850  0.64400  1.0000 -0.0479260341
C   C109      1.0  0.16830  0.40605  0.47294  1.0000 0.1274172173
C   C110      1.0  0.50760  0.28005  0.41697  1.0000 -0.2010146026
C   C111      1.0  0.56290  0.23484  0.42375  1.0000 -0.1833243274
C   C112      1.0  0.57000  0.20367  0.38668  1.0000 0.1192948273
C   C113      1.0  0.32120  0.36310  0.40198  1.0000 0.1576029639
C   C114      1.0  0.71520  0.14178  0.42707  1.0000 -0.1188033389
C   C115      1.0  0.57720  0.11563  0.37202  1.0000 0.0284736862
C   C116      1.0  0.23380  0.33642  0.42974  1.0000 -0.1833243274
C   C117      1.0  0.45770  0.29393  0.37379  1.0000 0.1576029639
C   C118      1.0  0.54350  0.41759  0.24991  1.0000 0.1192948273
C   C119      1.0  0.72800  0.09403  0.42302  1.0000 -0.0715179012
C   C120      1.0  0.44970  0.36737  0.32710  1.0000 0.1576029639
C   C121      1.0  0.16020  0.35739  0.46543  1.0000 -0.1708896479
C   C122      1.0  0.58860  0.36710  0.31546  1.0000 -0.1833243274
C   C123      1.0  0.51930  0.21664  0.34296  1.0000 -0.1913479413
C   C124      1.0  0.72320  0.46025  0.20203  1.0000 0.0087189246
C   C125      1.0  0.25000  0.43364  0.44410  1.0000 -0.2010146026
C   C126      1.0  0.46350  0.26202  0.33740  1.0000 -0.1833243274
C   C127      1.0  0.32730  0.41203  0.40913  1.0000 -0.2010146026
C   C128      1.0  0.14830  0.46030  0.54055  1.0000 0.0536438529
C   C129      1.0  0.63700  0.39200  0.27672  1.0000 -0.1913479413
C   C130      1.0  0.94360  0.44300  0.56543  1.0000 -0.0715179012
C   C131      1.0  0.96470  0.41670  0.52804  1.0000 -0.1188033389
C   C132      1.0  0.40550  0.41710  0.26080  1.0000 -0.1833243274
C   C133      1.0  0.35890  0.39240  0.29980  1.0000 -0.1913479413
C   C134      1.0  0.51410  0.45760  0.17280  1.0000 -0.1188033389
C   C135      1.0  0.60400  0.48150  0.14400  1.0000 -0.0479260341
C   C136      1.0  0.33170  0.90605  0.02706  1.0000 0.1274172173
C   C137      1.0  0.99240  0.78005  0.08303  1.0000 -0.2010146026
C   C138      1.0  0.93710  0.73484  0.07625  1.0000 -0.1833243274
C   C139      1.0  0.93000  0.70367  0.11332  1.0000 0.1192948273
C   C140      1.0  0.17880  0.86310  0.09802  1.0000 0.1576029639
C   C141      1.0  0.78480  0.64178  0.07293  1.0000 -0.1188033389
C   C142      1.0  0.92280  0.61563  0.12798  1.0000 0.0284736862
C   C143      1.0  0.26620  0.83642  0.07026  1.0000 -0.1833243274
C   C144      1.0  0.04230  0.79393  0.12621  1.0000 0.1576029639
C   C145      1.0  0.95650  0.91759  0.25009  1.0000 0.1192948273
C   C146      1.0  0.77200  0.59403  0.07698  1.0000 -0.0715179012
C   C147      1.0  0.05030  0.86737  0.17290  1.0000 0.1576029639
C   C148      1.0  0.33980  0.85739  0.03457  1.0000 -0.1708896479
C   C149      1.0  0.91140  0.86710  0.18454  1.0000 -0.1833243274
C   C150      1.0  0.98070  0.71664  0.15704  1.0000 -0.1913479413
C   C151      1.0  0.77680  0.96025  0.29797  1.0000 0.0087189246
C   C152      1.0  0.25000  0.93364  0.05590  1.0000 -0.2010146026
C   C153      1.0  0.03650  0.76202  0.16260  1.0000 -0.1833243274
C   C154      1.0  0.17270  0.91203  0.09087  1.0000 -0.2010146026
C   C155      1.0  0.35170  0.96030  0.95945  1.0000 0.0536438529
C   C156      1.0  0.86300  0.89200  0.22328  1.0000 -0.1913479413
C   C157      1.0  0.55640  0.94300  0.93457  1.0000 -0.0715179012
C   C158      1.0  0.53530  0.91670  0.97196  1.0000 -0.1188033389
C   C159      1.0  0.09450  0.91710  0.23920  1.0000 -0.1833243274
C   C160      1.0  0.14110  0.89240  0.20020  1.0000 -0.1913479413
C   C161      1.0  0.98590  0.95760  0.32720  1.0000 -0.114995931
C   C162      1.0  0.89600  0.98150  0.35600  1.0000 -0.0479260341
C   C163      1.0  0.83170  0.40605  0.97294  1.0000 0.1274172173
C   C164      1.0  0.49240  0.28005  0.91697  1.0000 -0.2010146026
C   C165      1.0  0.43710  0.23484  0.92375  1.0000 -0.1833243274
C   C166      1.0  0.43000  0.20367  0.88668  1.0000 0.1192948273
C   C167      1.0  0.67880  0.36310  0.90198  1.0000 0.1576029639
C   C168      1.0  0.28480  0.14178  0.92707  1.0000 -0.1188033389
C   C169      1.0  0.42280  0.11563  0.87202  1.0000 0.0284736862
C   C170      1.0  0.76620  0.33642  0.92974  1.0000 -0.1833243274
C   C171      1.0  0.54230  0.29393  0.87379  1.0000 0.1576029639
C   C172      1.0  0.45650  0.41759  0.74991  1.0000 0.1192948273
C   C173      1.0  0.27200  0.09403  0.92302  1.0000 -0.0715179012
C   C174      1.0  0.55030  0.36737  0.82710  1.0000 0.1576029639
C   C175      1.0  0.83980  0.35739  0.96543  1.0000 -0.1708896479
C   C176      1.0  0.41140  0.36710  0.81546  1.0000 -0.1833243274
C   C177      1.0  0.48070  0.21664  0.84296  1.0000 -0.1913479413
C   C178      1.0  0.27680  0.46025  0.70203  1.0000 0.0087189246
C   C179      1.0  0.75000  0.43364  0.94410  1.0000 -0.2010146026
C   C180      1.0  0.53650  0.26202  0.83740  1.0000 -0.1833243274
C   C181      1.0  0.67270  0.41203  0.90913  1.0000 -0.2010146026
C   C182      1.0  0.85170  0.46030  0.04055  1.0000 0.055178582
C   C183      1.0  0.36300  0.39200  0.77672  1.0000 -0.1913479413
C   C184      1.0  0.05640  0.44300  0.06543  1.0000 -0.0715179012
C   C185      1.0  0.03530  0.41670  0.02804  1.0000 -0.1188033389
C   C186      1.0  0.59450  0.41710  0.76080  1.0000 -0.1708896479
C   C187      1.0  0.64110  0.39240  0.79980  1.0000 -0.1913479413
C   C188      1.0  0.48590  0.45760  0.67280  1.0000 -0.1188033389
C   C189      1.0  0.39600  0.48150  0.64400  1.0000 -0.0479260341
C   C190      1.0  0.66830  0.90605  0.52706  1.0000 0.1274172173
C   C191      1.0  0.00760  0.78005  0.58303  1.0000 -0.2010146026
C   C192      1.0  0.06290  0.73484  0.57625  1.0000 -0.1833243274
C   C193      1.0  0.07000  0.70367  0.61332  1.0000 0.1192948273
C   C194      1.0  0.82120  0.86310  0.59802  1.0000 0.1576029639
C   C195      1.0  0.21520  0.64178  0.57293  1.0000 -0.1188033389
C   C196      1.0  0.07720  0.61563  0.62798  1.0000 0.0284736862
C   C197      1.0  0.73380  0.83642  0.57026  1.0000 -0.1833243274
C   C198      1.0  0.95770  0.79393  0.62621  1.0000 0.1576029639
C   C199      1.0  0.04350  0.91759  0.75009  1.0000 0.1192948273
C   C200      1.0  0.22800  0.59403  0.57698  1.0000 -0.0715179012
C   C201      1.0  0.94970  0.86737  0.67290  1.0000 0.1576029639
C   C202      1.0  0.66020  0.85739  0.53457  1.0000 -0.1708896479
C   C203      1.0  0.08860  0.86710  0.68454  1.0000 -0.1833243274
C   C204      1.0  0.01930  0.71664  0.65704  1.0000 -0.1913479413
C   C205      1.0  0.22320  0.96025  0.79797  1.0000 0.0087189246
C   C206      1.0  0.75000  0.93364  0.55590  1.0000 -0.2010146026
C   C207      1.0  0.96350  0.76202  0.66260  1.0000 -0.1833243274
C   C208      1.0  0.82730  0.91203  0.59087  1.0000 -0.2010146026
C   C209      1.0  0.64830  0.96030  0.45945  1.0000 0.0536438529
C   C210      1.0  0.13700  0.89200  0.72328  1.0000 -0.1913479413
C   C211      1.0  0.44360  0.94300  0.43457  1.0000 -0.0715179012
C   C212      1.0  0.46470  0.91670  0.47196  1.0000 -0.1188033389
C   C213      1.0  0.90550  0.91710  0.73920  1.0000 -0.1708896479
C   C214      1.0  0.85890  0.89240  0.70020  1.0000 -0.1913479413
C   C215      1.0  0.01410  0.95760  0.82720  1.0000 -0.1188033389
C   C216      1.0  0.10400  0.98150  0.85600  1.0000 -0.0479260341
N   N1        1.0  0.62060  0.84438  0.10576  1.0000 -0.0023934757
N   N2        1.0  0.09600  0.57267  0.98822  1.0000 0.0087189246
N   N3        1.0  0.64120  0.92207  0.11146  1.0000 -0.2701473243
N   N4        1.0  0.05970  0.52925  0.92595  1.0000 -0.2701473243
N   N5        1.0  0.40210  0.65935  0.13352  1.0000 -0.2200921557
N   N6        1.0  0.59150  0.55594  0.29016  1.0000 0.0087189246
N   N7        1.0  0.73090  0.51737  0.33837  1.0000 -0.2369820881
N   N8        1.0  0.87940  0.34438  0.39424  1.0000 -0.0023934757
N   N9        1.0  0.40400  0.07267  0.51178  1.0000 0.0087189246
N   N10       1.0  0.85880  0.42207  0.38854  1.0000 -0.2701473243
N   N11       1.0  0.44030  0.02925  0.57405  1.0000 -0.2701473243
N   N12       1.0  0.09790  0.15935  0.36648  1.0000 -0.2200921557
N   N13       1.0  0.90850  0.05594  0.20984  1.0000 0.0087189246
N   N14       1.0  0.76910  0.01737  0.16163  1.0000 -0.2369820881
N   N15       1.0  0.37940  0.84438  0.60576  1.0000 -0.0023934757
N   N16       1.0  0.90400  0.57267  0.48822  1.0000 0.0087189246
N   N17       1.0  0.35880  0.92207  0.61146  1.0000 -0.2701473243
N   N18       1.0  0.94030  0.52925  0.42595  1.0000 -0.2701473243
N   N19       1.0  0.59790  0.65935  0.63352  1.0000 -0.2200921557
N   N20       1.0  0.40850  0.55594  0.79016  1.0000 0.0087189246
N   N21       1.0  0.26910  0.51737  0.83837  1.0000 -0.2369820881
N   N22       1.0  0.12060  0.34438  0.89424  1.0000 -0.0023934757
N   N23       1.0  0.59600  0.07267  0.01178  1.0000 0.0087189246
N   N24       1.0  0.14120  0.42207  0.88854  1.0000 -0.2701473243
N   N25       1.0  0.55970  0.02925  0.07405  1.0000 -0.2701473243
N   N26       1.0  0.90210  0.15935  0.86648  1.0000 -0.2200921557
N   N27       1.0  0.09150  0.05594  0.70984  1.0000 0.0087189246
N   N28       1.0  0.23090  0.01737  0.66163  1.0000 -0.2369820881
N   N29       1.0  0.62060  0.15562  0.39424  1.0000 -0.0023934757
N   N30       1.0  0.09600  0.42733  0.51178  1.0000 0.0087189246
N   N31       1.0  0.64120  0.07793  0.38854  1.0000 -0.2701473243
N   N32       1.0  0.05970  0.47075  0.57405  1.0000 -0.2701473243
N   N33       1.0  0.40210  0.34065  0.36648  1.0000 -0.2200921557
N   N34       1.0  0.59150  0.44406  0.20984  1.0000 0.0087189246
N   N35       1.0  0.73090  0.48263  0.16163  1.0000 -0.2342876091
N   N36       1.0  0.87940  0.65562  0.10576  1.0000 -0.0023934757
N   N37       1.0  0.40400  0.92733  0.98822  1.0000 0.0087189246
N   N38       1.0  0.85880  0.57793  0.11146  1.0000 -0.2701473243
N   N39       1.0  0.44030  0.97075  0.92595  1.0000 -0.2701473243
N   N40       1.0  0.09790  0.84065  0.13352  1.0000 -0.2200921557
N   N41       1.0  0.90850  0.94406  0.29016  1.0000 0.0087189246
N   N42       1.0  0.76910  0.98263  0.33837  1.0000 -0.2369820881
N   N43       1.0  0.37940  0.15562  0.89424  1.0000 -0.0023934757
N   N44       1.0  0.90400  0.42733  0.01178  1.0000 0.0087189246
N   N45       1.0  0.35880  0.07793  0.88854  1.0000 -0.2701473243
N   N46       1.0  0.94030  0.47075  0.07405  1.0000 -0.2701473243
N   N47       1.0  0.59790  0.34065  0.86648  1.0000 -0.2200921557
N   N48       1.0  0.40850  0.44406  0.70984  1.0000 0.0087189246
N   N49       1.0  0.26910  0.48263  0.66163  1.0000 -0.2369820881
N   N50       1.0  0.12060  0.65562  0.60576  1.0000 -0.0023934757
N   N51       1.0  0.59600  0.92733  0.48822  1.0000 0.0087189246
N   N52       1.0  0.14120  0.57793  0.61146  1.0000 -0.2701473243
N   N53       1.0  0.55970  0.97075  0.42595  1.0000 -0.2701473243
N   N54       1.0  0.90210  0.84065  0.63352  1.0000 -0.2200921557
N   N55       1.0  0.09150  0.94406  0.79016  1.0000 0.0087189246
N   N56       1.0  0.23090  0.98263  0.83837  1.0000 -0.2369820881
