# DDEC6 charges by PACMAN v1.1 (https://github.com/mtap-research/PACMAN-charge/)
data_ja9b10501_si_019_ASR_pacman
_symmetry_space_group_name_H-M   'P 1'
_cell_length_a   19.04660000
_cell_length_b   19.04660000
_cell_length_c   36.38900000
_cell_angle_alpha   90.00000000
_cell_angle_beta   90.00000000
_cell_angle_gamma   90.00000000
_symmetry_Int_Tables_number   1
_chemical_formula_structural   Al16H158.4C252.8N9.6O70.4
_chemical_formula_sum   'Al16 H158.4 C252.8 N9.6 O70.4'
_cell_volume   13200.94566210
_cell_formula_units_Z   1
loop_
 _symmetry_equiv_pos_site_id
 _symmetry_equiv_pos_as_xyz
  1  'x, y, z'
loop_
 _atom_site_type_symbol
 _atom_site_label
 _atom_site_symmetry_multiplicity
 _atom_site_fract_x
 _atom_site_fract_y
 _atom_site_fract_z
 _atom_site_occupancy
 _atom_site_charge
Al  Al1  1  0.87605000  0.10271000  0.08019000  1.0 1.4135746916
Al  Al2  1  0.12395000  0.89729000  0.08019000  1.0 1.4135746916
Al  Al3  1  0.39729000  0.37605000  0.58019000  1.0 1.4135746916
Al  Al4  1  0.60271000  0.62395000  0.58019000  1.0 1.4135746916
Al  Al5  1  0.62395000  0.60271000  0.41981000  1.0 1.4135746916
Al  Al6  1  0.37605000  0.39729000  0.41981000  1.0 1.4135746916
Al  Al7  1  0.10271000  0.87605000  0.91981000  1.0 1.4135746916
Al  Al8  1  0.89729000  0.12395000  0.91981000  1.0 1.4135746916
Al  Al9  1  0.83616000  0.16384000  0.00000000  1.0 1.2123053034
Al  Al10  1  0.16384000  0.83616000  0.00000000  1.0 1.2123053034
Al  Al11  1  0.33616000  0.33616000  0.50000000  1.0 1.2123053034
Al  Al12  1  0.66384000  0.66384000  0.50000000  1.0 1.2123053034
Al  Al13  1  0.00000000  0.00000000  0.11288000  1.0 1.6510077377
Al  Al14  1  0.50000000  0.50000000  0.61288000  1.0 1.6510077377
Al  Al15  1  0.50000000  0.50000000  0.38712000  1.0 1.6510077377
Al  Al16  1  0.00000000  0.00000000  0.88712000  1.0 1.6510077377
H  H1  1  0.93110000  0.99720000  0.05740000  1.0 0.4218536091
H  H2  1  0.94873000  0.13526000  0.02803000  1.0 0.4218536091
H  H3  1  0.78468000  0.36698000  0.04189000  1.0 0.1198647205
H  H4  1  0.79271000  0.36146000  0.17047000  1.0 0.1122154919
H  H5  1  0.79259000  0.25745000  0.13752000  1.0 0.1295028721
H  H6  1  0.73849000  0.61267000  0.32349000  1.0 0.1363749892
H  H7  1  0.79310000  0.61295000  0.26745000  1.0 0.1122154919
H  H8  1  0.57934000  0.49525000  0.28357000  1.0 0.1198647205
H  H9  1  0.01323000  0.71370000  0.10456000  1.0 0.1295028721
H  H10  1  0.72665000  0.45470000  0.18976000  1.0 0.1122154919
H  H11  1  0.86254000  0.84476000  0.14179000  1.0 0.1295028721
H  H12  1  0.77876000  0.47154000  0.07600000  1.0 0.1122154919
H  H13  1  0.83783000  0.55342000  0.11174000  1.0 0.1198647205
H  H14  1  0.62982000  0.50075000  0.22463000  1.0 0.1122154919
H  H15  1  0.79530000  0.75074000  0.15884000  1.0 0.1198647205
H  H16  1  0.94824000  0.61734000  0.12360000  1.0 0.1122154919
H  H17  1  0.79203000  0.65479000  0.20563000  1.0 0.1198647205
H  H18  1  0.06890000  0.00280000  0.05740000  1.0 0.4218536091
H  H19  1  0.05127000  0.86474000  0.02803000  1.0 0.4218536091
H  H20  1  0.21532000  0.63302000  0.04189000  1.0 0.1198647205
H  H21  1  0.20729000  0.63854000  0.17047000  1.0 0.1122154919
H  H22  1  0.20741000  0.74255000  0.13752000  1.0 0.1295028721
H  H23  1  0.26151000  0.38733000  0.32349000  1.0 0.1363749892
H  H24  1  0.20690000  0.38705000  0.26745000  1.0 0.1122154919
H  H25  1  0.42066000  0.50475000  0.28357000  1.0 0.1198647205
H  H26  1  0.98677000  0.28630000  0.10456000  1.0 0.1295028721
H  H27  1  0.27335000  0.54530000  0.18976000  1.0 0.1122154919
H  H28  1  0.13746000  0.15524000  0.14179000  1.0 0.1295028721
H  H29  1  0.22124000  0.52846000  0.07600000  1.0 0.1122154919
H  H30  1  0.16217000  0.44658000  0.11174000  1.0 0.1198647205
H  H31  1  0.37018000  0.49925000  0.22463000  1.0 0.1122154919
H  H32  1  0.20470000  0.24926000  0.15884000  1.0 0.1198647205
H  H33  1  0.05176000  0.38266000  0.12360000  1.0 0.1122154919
H  H34  1  0.20797000  0.34521000  0.20563000  1.0 0.1198647205
H  H35  1  0.50280000  0.43110000  0.55740000  1.0 0.4218536091
H  H36  1  0.36474000  0.44873000  0.52803000  1.0 0.4218536091
H  H37  1  0.13302000  0.28468000  0.54189000  1.0 0.1198647205
H  H38  1  0.13854000  0.29271000  0.67047000  1.0 0.1122154919
H  H39  1  0.24255000  0.29259000  0.63752000  1.0 0.1295028721
H  H40  1  0.88733000  0.23849000  0.82349000  1.0 0.1363749892
H  H41  1  0.88705000  0.29310000  0.76745000  1.0 0.1122154919
H  H42  1  0.00475000  0.07934000  0.78357000  1.0 0.1198647205
H  H43  1  0.78630000  0.51323000  0.60456000  1.0 0.1295028721
H  H44  1  0.04530000  0.22665000  0.68976000  1.0 0.1122154919
H  H45  1  0.65524000  0.36254000  0.64179000  1.0 0.1295028721
H  H46  1  0.02846000  0.27876000  0.57600000  1.0 0.1122154919
H  H47  1  0.94658000  0.33783000  0.61174000  1.0 0.1198647205
H  H48  1  0.99925000  0.12982000  0.72463000  1.0 0.1122154919
H  H49  1  0.74926000  0.29530000  0.65884000  1.0 0.1198647205
H  H50  1  0.88266000  0.44824000  0.62360000  1.0 0.1122154919
H  H51  1  0.84521000  0.29203000  0.70563000  1.0 0.1198647205
H  H52  1  0.49720000  0.56890000  0.55740000  1.0 0.4218536091
H  H53  1  0.63526000  0.55127000  0.52803000  1.0 0.4218536091
H  H54  1  0.86698000  0.71532000  0.54189000  1.0 0.1198647205
H  H55  1  0.86146000  0.70729000  0.67047000  1.0 0.1122154919
H  H56  1  0.75745000  0.70741000  0.63752000  1.0 0.1295028721
H  H57  1  0.11267000  0.76151000  0.82349000  1.0 0.1363749892
H  H58  1  0.11295000  0.70690000  0.76745000  1.0 0.1122154919
H  H59  1  0.99525000  0.92066000  0.78357000  1.0 0.1198647205
H  H60  1  0.21370000  0.48677000  0.60456000  1.0 0.1295028721
H  H61  1  0.95470000  0.77335000  0.68976000  1.0 0.1122154919
H  H62  1  0.34476000  0.63746000  0.64179000  1.0 0.1295028721
H  H63  1  0.97154000  0.72124000  0.57600000  1.0 0.1122154919
H  H64  1  0.05342000  0.66217000  0.61174000  1.0 0.1198647205
H  H65  1  0.00075000  0.87018000  0.72463000  1.0 0.1122154919
H  H66  1  0.25074000  0.70470000  0.65884000  1.0 0.1198647205
H  H67  1  0.11734000  0.55176000  0.62360000  1.0 0.1122154919
H  H68  1  0.15479000  0.70797000  0.70563000  1.0 0.1198647205
H  H69  1  0.56890000  0.49720000  0.44260000  1.0 0.4218536091
H  H70  1  0.55127000  0.63526000  0.47197000  1.0 0.4218536091
H  H71  1  0.71532000  0.86698000  0.45811000  1.0 0.1198647205
H  H72  1  0.70729000  0.86146000  0.32953000  1.0 0.1122154919
H  H73  1  0.70741000  0.75745000  0.36248000  1.0 0.1295028721
H  H74  1  0.76151000  0.11267000  0.17651000  1.0 0.1363749892
H  H75  1  0.70690000  0.11295000  0.23255000  1.0 0.1122154919
H  H76  1  0.92066000  0.99525000  0.21643000  1.0 0.1198647205
H  H77  1  0.48677000  0.21370000  0.39544000  1.0 0.1295028721
H  H78  1  0.77335000  0.95470000  0.31024000  1.0 0.1122154919
H  H79  1  0.63746000  0.34476000  0.35821000  1.0 0.1295028721
H  H80  1  0.72124000  0.97154000  0.42400000  1.0 0.1122154919
H  H81  1  0.66217000  0.05342000  0.38826000  1.0 0.1198647205
H  H82  1  0.87018000  0.00075000  0.27537000  1.0 0.1122154919
H  H83  1  0.70470000  0.25074000  0.34116000  1.0 0.1198647205
H  H84  1  0.55176000  0.11734000  0.37640000  1.0 0.1122154919
H  H85  1  0.70797000  0.15479000  0.29437000  1.0 0.1198647205
H  H86  1  0.43110000  0.50280000  0.44260000  1.0 0.4218536091
H  H87  1  0.44873000  0.36474000  0.47197000  1.0 0.4218536091
H  H88  1  0.28468000  0.13302000  0.45811000  1.0 0.1198647205
H  H89  1  0.29271000  0.13854000  0.32953000  1.0 0.1122154919
H  H90  1  0.29259000  0.24255000  0.36248000  1.0 0.1295028721
H  H91  1  0.23849000  0.88733000  0.17651000  1.0 0.1363749892
H  H92  1  0.29310000  0.88705000  0.23255000  1.0 0.1122154919
H  H93  1  0.07934000  0.00475000  0.21643000  1.0 0.1198647205
H  H94  1  0.51323000  0.78630000  0.39544000  1.0 0.1295028721
H  H95  1  0.22665000  0.04530000  0.31024000  1.0 0.1122154919
H  H96  1  0.36254000  0.65524000  0.35821000  1.0 0.1295028721
H  H97  1  0.27876000  0.02846000  0.42400000  1.0 0.1122154919
H  H98  1  0.33783000  0.94658000  0.38826000  1.0 0.1198647205
H  H99  1  0.12982000  0.99925000  0.27537000  1.0 0.1122154919
H  H100  1  0.29530000  0.74926000  0.34116000  1.0 0.1198647205
H  H101  1  0.44824000  0.88266000  0.37640000  1.0 0.1122154919
H  H102  1  0.29203000  0.84521000  0.29437000  1.0 0.1122154919
H  H103  1  0.99720000  0.93110000  0.94260000  1.0 0.4218536091
H  H104  1  0.13526000  0.94873000  0.97197000  1.0 0.4218536091
H  H105  1  0.36698000  0.78468000  0.95811000  1.0 0.1198647205
H  H106  1  0.36146000  0.79271000  0.82953000  1.0 0.1122154919
H  H107  1  0.25745000  0.79259000  0.86248000  1.0 0.1295028721
H  H108  1  0.61267000  0.73849000  0.67651000  1.0 0.1363749892
H  H109  1  0.61295000  0.79310000  0.73255000  1.0 0.1122154919
H  H110  1  0.49525000  0.57934000  0.71643000  1.0 0.1198647205
H  H111  1  0.71370000  0.01323000  0.89544000  1.0 0.1295028721
H  H112  1  0.45470000  0.72665000  0.81024000  1.0 0.1122154919
H  H113  1  0.84476000  0.86254000  0.85821000  1.0 0.1295028721
H  H114  1  0.47154000  0.77876000  0.92400000  1.0 0.1122154919
H  H115  1  0.55342000  0.83783000  0.88826000  1.0 0.1198647205
H  H116  1  0.50075000  0.62982000  0.77537000  1.0 0.1122154919
H  H117  1  0.75074000  0.79530000  0.84116000  1.0 0.1198647205
H  H118  1  0.61734000  0.94824000  0.87640000  1.0 0.1122154919
H  H119  1  0.65479000  0.79203000  0.79437000  1.0 0.1198647205
H  H120  1  0.00280000  0.06890000  0.94260000  1.0 0.4218536091
H  H121  1  0.86474000  0.05127000  0.97197000  1.0 0.4218536091
H  H122  1  0.63302000  0.21532000  0.95811000  1.0 0.1198647205
H  H123  1  0.63854000  0.20729000  0.82953000  1.0 0.1122154919
H  H124  1  0.74255000  0.20741000  0.86248000  1.0 0.1295028721
H  H125  1  0.38733000  0.26151000  0.67651000  1.0 0.1363749892
H  H126  1  0.38705000  0.20690000  0.73255000  1.0 0.1122154919
H  H127  1  0.50475000  0.42066000  0.71643000  1.0 0.1198647205
H  H128  1  0.28630000  0.98677000  0.89544000  1.0 0.1295028721
H  H129  1  0.54530000  0.27335000  0.81024000  1.0 0.1122154919
H  H130  1  0.15524000  0.13746000  0.85821000  1.0 0.1295028721
H  H131  1  0.52846000  0.22124000  0.92400000  1.0 0.1122154919
H  H132  1  0.44658000  0.16217000  0.88826000  1.0 0.1198647205
H  H133  1  0.49925000  0.37018000  0.77537000  1.0 0.1122154919
H  H134  1  0.24926000  0.20470000  0.84116000  1.0 0.1198647205
H  H135  1  0.38266000  0.05176000  0.87640000  1.0 0.1122154919
H  H136  1  0.34521000  0.20797000  0.79437000  1.0 0.1198647205
H  H137  1  0.91312000  0.31983000  0.00205000  0.28 0.0792756826
H  H138  1  0.05494000  0.20879000  0.89373000  0.28 0.1295028721
H  H139  1  0.10545000  0.31990000  0.87665000  0.28 0.0792756826
H  H140  1  0.00019000  0.42121000  0.96200000  0.28 0.1019011651
H  H141  1  0.08688000  0.68017000  0.00205000  0.28 0.0792756826
H  H142  1  0.94506000  0.79121000  0.89373000  0.28 0.1295028721
H  H143  1  0.89455000  0.68010000  0.87665000  0.28 0.0792756826
H  H144  1  0.99981000  0.57879000  0.96200000  0.28 0.1019011651
H  H145  1  0.18017000  0.41312000  0.50205000  0.28 0.0792756826
H  H146  1  0.29121000  0.55494000  0.39373000  0.28 0.1295028721
H  H147  1  0.18010000  0.60545000  0.37665000  0.28 0.0792756826
H  H148  1  0.07879000  0.50019000  0.46200000  0.28 0.1019011651
H  H149  1  0.81983000  0.58688000  0.50205000  0.28 0.0792756826
H  H150  1  0.70879000  0.44506000  0.39373000  0.28 0.1295028721
H  H151  1  0.81990000  0.39455000  0.37665000  0.28 0.0792756826
H  H152  1  0.92121000  0.49981000  0.46200000  0.28 0.1019011651
H  H153  1  0.58688000  0.81983000  0.49795000  0.28 0.0792756826
H  H154  1  0.44506000  0.70879000  0.60627000  0.28 0.1295028721
H  H155  1  0.39455000  0.81990000  0.62335000  0.28 0.0792756826
H  H156  1  0.49981000  0.92121000  0.53800000  0.28 0.1019011651
H  H157  1  0.41312000  0.18017000  0.49795000  0.28 0.0792756826
H  H158  1  0.55494000  0.29121000  0.60627000  0.28 0.1295028721
H  H159  1  0.60545000  0.18010000  0.62335000  0.28 0.0792756826
H  H160  1  0.50019000  0.07879000  0.53800000  0.28 0.1019011651
H  H161  1  0.31983000  0.91312000  0.99795000  0.28 0.0792756826
H  H162  1  0.20879000  0.05494000  0.10627000  0.28 0.1295028721
H  H163  1  0.31990000  0.10545000  0.12335000  0.28 0.0792756826
H  H164  1  0.42121000  0.00019000  0.03800000  0.28 0.1019011651
H  H165  1  0.68017000  0.08688000  0.99795000  0.28 0.0792756826
H  H166  1  0.79121000  0.94506000  0.10627000  0.28 0.1295028721
H  H167  1  0.68010000  0.89455000  0.12335000  0.28 0.0792756826
H  H168  1  0.57879000  0.99981000  0.03800000  0.28 0.1019011651
H  H169  1  0.94383000  0.29187000  0.01602000  0.32 0.0792756826
H  H170  1  0.14381000  0.27575000  0.89853000  0.32 0.0792756826
H  H171  1  0.04222000  0.20835000  0.89261000  0.32 0.1363749892
H  H172  1  0.07084000  0.35741000  0.99299000  0.32 0.090387975
H  H173  1  0.05617000  0.70813000  0.01602000  0.32 0.0792756826
H  H174  1  0.85619000  0.72425000  0.89853000  0.32 0.0792756826
H  H175  1  0.95778000  0.79165000  0.89261000  0.32 0.1363749892
H  H176  1  0.92916000  0.64259000  0.99299000  0.32 0.090387975
H  H177  1  0.20813000  0.44383000  0.51602000  0.32 0.0792756826
H  H178  1  0.22425000  0.64381000  0.39853000  0.32 0.0792756826
H  H179  1  0.29165000  0.54222000  0.39261000  0.32 0.1363749892
H  H180  1  0.14259000  0.57084000  0.49299000  0.32 0.090387975
H  H181  1  0.79187000  0.55617000  0.51602000  0.32 0.0792756826
H  H182  1  0.77575000  0.35619000  0.39853000  0.32 0.0792756826
H  H183  1  0.70835000  0.45778000  0.39261000  0.32 0.1363749892
H  H184  1  0.85741000  0.42916000  0.49299000  0.32 0.090387975
H  H185  1  0.55617000  0.79187000  0.48398000  0.32 0.0792756826
H  H186  1  0.35619000  0.77575000  0.60147000  0.32 0.0792756826
H  H187  1  0.45778000  0.70835000  0.60739000  0.32 0.1363749892
H  H188  1  0.42916000  0.85741000  0.50701000  0.32 0.090387975
H  H189  1  0.44383000  0.20813000  0.48398000  0.32 0.0792756826
H  H190  1  0.64381000  0.22425000  0.60147000  0.32 0.0792756826
H  H191  1  0.54222000  0.29165000  0.60739000  0.32 0.1363749892
H  H192  1  0.57084000  0.14259000  0.50701000  0.32 0.090387975
H  H193  1  0.29187000  0.94383000  0.98398000  0.32 0.0792756826
H  H194  1  0.27575000  0.14381000  0.10147000  0.32 0.0792756826
H  H195  1  0.20835000  0.04222000  0.10739000  0.32 0.1363749892
H  H196  1  0.35741000  0.07084000  0.00701000  0.32 0.090387975
H  H197  1  0.70813000  0.05617000  0.98398000  0.32 0.0792756826
H  H198  1  0.72425000  0.85619000  0.10147000  0.32 0.0792756826
H  H199  1  0.79165000  0.95778000  0.10739000  0.32 0.1363749892
H  H200  1  0.64259000  0.92916000  0.00701000  0.32 0.090387975
H  H201  1  0.96656000  0.29424000  0.95911000  0.4 0.090387975
H  H202  1  0.03344000  0.70576000  0.95911000  0.4 0.090387975
H  H203  1  0.20576000  0.46656000  0.45911000  0.4 0.090387975
H  H204  1  0.79424000  0.53344000  0.45911000  0.4 0.090387975
H  H205  1  0.53344000  0.79424000  0.54089000  0.4 0.090387975
H  H206  1  0.46656000  0.20576000  0.54089000  0.4 0.090387975
H  H207  1  0.29424000  0.96656000  0.04089000  0.4 0.090387975
H  H208  1  0.70576000  0.03344000  0.04089000  0.4 0.090387975
C  C1  1  0.79390000  0.30140000  0.08710000  1.0 -0.0199100003
C  C2  1  0.94770000  0.78740000  0.12310000  1.0 -0.0286655317
C  C3  1  0.80640000  0.23620000  0.06640000  1.0 0.5490234678
C  C4  1  0.65530000  0.55440000  0.30940000  1.0 -0.0595286717
C  C5  1  0.62250000  0.55210000  0.34570000  1.0 0.6020488401
C  C6  1  0.75240000  0.55660000  0.20380000  1.0 0.0711807892
C  C7  1  0.78390000  0.49180000  0.14780000  1.0 0.0792756826
C  C8  1  0.99080000  0.84950000  0.11240000  1.0 0.6206278016
C  C9  1  0.78670000  0.36590000  0.06800000  1.0 -0.1177616318
C  C10  1  0.79010000  0.36260000  0.14440000  1.0 -0.1501386482
C  C11  1  0.78390000  0.42730000  0.12610000  1.0 0.055656282
C  C12  1  0.79220000  0.30100000  0.12480000  1.0 -0.097668232
C  C13  1  0.71710000  0.58870000  0.30350000  1.0 -0.097668232
C  C14  1  0.74920000  0.58980000  0.27010000  1.0 -0.1501386482
C  C15  1  0.62210000  0.51990000  0.27980000  1.0 -0.097668232
C  C16  1  0.96980000  0.72100000  0.11690000  1.0 -0.097668232
C  C17  1  0.75120000  0.49490000  0.18120000  1.0 -0.201903906
C  C18  1  0.88000000  0.79840000  0.13870000  1.0 -0.0882194417
C  C19  1  0.78260000  0.42790000  0.08850000  1.0 -0.1501386482
C  C20  1  0.86780000  0.67250000  0.14490000  1.0 0.0711807892
C  C21  1  0.81850000  0.55290000  0.13580000  1.0 -0.201903906
C  C22  1  0.82580000  0.61150000  0.15710000  1.0 0.0711807892
C  C23  1  0.71800000  0.55680000  0.23940000  1.0 0.0711807892
C  C24  1  0.65280000  0.52230000  0.24480000  1.0 -0.1664724241
C  C25  1  0.84080000  0.74340000  0.14890000  1.0 -0.1501386482
C  C26  1  0.93090000  0.66340000  0.12790000  1.0 -0.1501386482
C  C27  1  0.79000000  0.61340000  0.19110000  1.0 -0.201903906
C  C28  1  0.20610000  0.69860000  0.08710000  1.0 -0.0199100003
C  C29  1  0.05230000  0.21260000  0.12310000  1.0 -0.0286655317
C  C30  1  0.19360000  0.76380000  0.06640000  1.0 0.5490234678
C  C31  1  0.34470000  0.44560000  0.30940000  1.0 -0.0595286717
C  C32  1  0.37750000  0.44790000  0.34570000  1.0 0.6020488401
C  C33  1  0.24760000  0.44340000  0.20380000  1.0 0.0711807892
C  C34  1  0.21610000  0.50820000  0.14780000  1.0 0.0792756826
C  C35  1  0.00920000  0.15050000  0.11240000  1.0 0.6206278016
C  C36  1  0.21330000  0.63410000  0.06800000  1.0 -0.1177616318
C  C37  1  0.20990000  0.63740000  0.14440000  1.0 -0.1501386482
C  C38  1  0.21610000  0.57270000  0.12610000  1.0 0.055656282
C  C39  1  0.20780000  0.69900000  0.12480000  1.0 -0.097668232
C  C40  1  0.28290000  0.41130000  0.30350000  1.0 -0.097668232
C  C41  1  0.25080000  0.41020000  0.27010000  1.0 -0.1501386482
C  C42  1  0.37790000  0.48010000  0.27980000  1.0 -0.097668232
C  C43  1  0.03020000  0.27900000  0.11690000  1.0 -0.097668232
C  C44  1  0.24880000  0.50510000  0.18120000  1.0 -0.201903906
C  C45  1  0.12000000  0.20160000  0.13870000  1.0 -0.0882194417
C  C46  1  0.21740000  0.57210000  0.08850000  1.0 -0.1501386482
C  C47  1  0.13220000  0.32750000  0.14490000  1.0 0.0711807892
C  C48  1  0.18150000  0.44710000  0.13580000  1.0 -0.201903906
C  C49  1  0.17420000  0.38850000  0.15710000  1.0 0.0711807892
C  C50  1  0.28200000  0.44320000  0.23940000  1.0 0.0711807892
C  C51  1  0.34720000  0.47770000  0.24480000  1.0 -0.1664724241
C  C52  1  0.15920000  0.25660000  0.14890000  1.0 -0.1501386482
C  C53  1  0.06910000  0.33660000  0.12790000  1.0 -0.1501386482
C  C54  1  0.21000000  0.38660000  0.19110000  1.0 -0.201903906
C  C55  1  0.19860000  0.29390000  0.58710000  1.0 -0.0199100003
C  C56  1  0.71260000  0.44770000  0.62310000  1.0 -0.0286655317
C  C57  1  0.26380000  0.30640000  0.56640000  1.0 0.5490234678
C  C58  1  0.94560000  0.15530000  0.80940000  1.0 -0.0595286717
C  C59  1  0.94790000  0.12250000  0.84570000  1.0 0.6020488401
C  C60  1  0.94340000  0.25240000  0.70380000  1.0 0.0711807892
C  C61  1  0.00820000  0.28390000  0.64780000  1.0 0.0792756826
C  C62  1  0.65050000  0.49080000  0.61240000  1.0 0.6206278016
C  C63  1  0.13410000  0.28670000  0.56800000  1.0 -0.1177616318
C  C64  1  0.13740000  0.29010000  0.64440000  1.0 -0.1501386482
C  C65  1  0.07270000  0.28390000  0.62610000  1.0 0.055656282
C  C66  1  0.19900000  0.29220000  0.62480000  1.0 -0.097668232
C  C67  1  0.91130000  0.21710000  0.80350000  1.0 -0.097668232
C  C68  1  0.91020000  0.24920000  0.77010000  1.0 -0.1501386482
C  C69  1  0.98010000  0.12210000  0.77980000  1.0 -0.097668232
C  C70  1  0.77900000  0.46980000  0.61690000  1.0 -0.097668232
C  C71  1  0.00510000  0.25120000  0.68120000  1.0 -0.201903906
C  C72  1  0.70160000  0.38000000  0.63870000  1.0 -0.0882194417
C  C73  1  0.07210000  0.28260000  0.58850000  1.0 -0.1501386482
C  C74  1  0.82750000  0.36780000  0.64490000  1.0 0.0711807892
C  C75  1  0.94710000  0.31850000  0.63580000  1.0 -0.201903906
C  C76  1  0.88850000  0.32580000  0.65710000  1.0 0.0711807892
C  C77  1  0.94320000  0.21800000  0.73940000  1.0 0.0711807892
C  C78  1  0.97770000  0.15280000  0.74480000  1.0 -0.1664724241
C  C79  1  0.75660000  0.34080000  0.64890000  1.0 -0.1501386482
C  C80  1  0.83660000  0.43090000  0.62790000  1.0 -0.1501386482
C  C81  1  0.88660000  0.29000000  0.69110000  1.0 -0.201903906
C  C82  1  0.80140000  0.70610000  0.58710000  1.0 -0.0199100003
C  C83  1  0.28740000  0.55230000  0.62310000  1.0 -0.0286655317
C  C84  1  0.73620000  0.69360000  0.56640000  1.0 0.5490234678
C  C85  1  0.05440000  0.84470000  0.80940000  1.0 -0.0595286717
C  C86  1  0.05210000  0.87750000  0.84570000  1.0 0.6020488401
C  C87  1  0.05660000  0.74760000  0.70380000  1.0 0.0711807892
C  C88  1  0.99180000  0.71610000  0.64780000  1.0 0.0792756826
C  C89  1  0.34950000  0.50920000  0.61240000  1.0 0.6206278016
C  C90  1  0.86590000  0.71330000  0.56800000  1.0 -0.1177616318
C  C91  1  0.86260000  0.70990000  0.64440000  1.0 -0.1501386482
C  C92  1  0.92730000  0.71610000  0.62610000  1.0 0.055656282
C  C93  1  0.80100000  0.70780000  0.62480000  1.0 -0.097668232
C  C94  1  0.08870000  0.78290000  0.80350000  1.0 -0.097668232
C  C95  1  0.08980000  0.75080000  0.77010000  1.0 -0.1501386482
C  C96  1  0.01990000  0.87790000  0.77980000  1.0 -0.097668232
C  C97  1  0.22100000  0.53020000  0.61690000  1.0 -0.097668232
C  C98  1  0.99490000  0.74880000  0.68120000  1.0 -0.201903906
C  C99  1  0.29840000  0.62000000  0.63870000  1.0 -0.0882194417
C  C100  1  0.92790000  0.71740000  0.58850000  1.0 -0.1501386482
C  C101  1  0.17250000  0.63220000  0.64490000  1.0 0.0711807892
C  C102  1  0.05290000  0.68150000  0.63580000  1.0 -0.201903906
C  C103  1  0.11150000  0.67420000  0.65710000  1.0 0.0711807892
C  C104  1  0.05680000  0.78200000  0.73940000  1.0 0.0711807892
C  C105  1  0.02230000  0.84720000  0.74480000  1.0 -0.1664724241
C  C106  1  0.24340000  0.65920000  0.64890000  1.0 -0.1501386482
C  C107  1  0.16340000  0.56910000  0.62790000  1.0 -0.1501386482
C  C108  1  0.11340000  0.71000000  0.69110000  1.0 -0.201903906
C  C109  1  0.70610000  0.80140000  0.41290000  1.0 -0.0199100003
C  C110  1  0.55230000  0.28740000  0.37690000  1.0 -0.0286655317
C  C111  1  0.69360000  0.73620000  0.43360000  1.0 0.5490234678
C  C112  1  0.84470000  0.05440000  0.19060000  1.0 -0.0595286717
C  C113  1  0.87750000  0.05210000  0.15430000  1.0 0.6020488401
C  C114  1  0.74760000  0.05660000  0.29620000  1.0 0.0711807892
C  C115  1  0.71610000  0.99180000  0.35220000  1.0 0.0792756826
C  C116  1  0.50920000  0.34950000  0.38760000  1.0 0.6206278016
C  C117  1  0.71330000  0.86590000  0.43200000  1.0 -0.1177616318
C  C118  1  0.70990000  0.86260000  0.35560000  1.0 -0.1501386482
C  C119  1  0.71610000  0.92730000  0.37390000  1.0 0.055656282
C  C120  1  0.70780000  0.80100000  0.37520000  1.0 -0.097668232
C  C121  1  0.78290000  0.08870000  0.19650000  1.0 -0.097668232
C  C122  1  0.75080000  0.08980000  0.22990000  1.0 -0.1501386482
C  C123  1  0.87790000  0.01990000  0.22020000  1.0 -0.097668232
C  C124  1  0.53020000  0.22100000  0.38310000  1.0 -0.097668232
C  C125  1  0.74880000  0.99490000  0.31880000  1.0 -0.201903906
C  C126  1  0.62000000  0.29840000  0.36130000  1.0 -0.0882194417
C  C127  1  0.71740000  0.92790000  0.41150000  1.0 -0.1501386482
C  C128  1  0.63220000  0.17250000  0.35510000  1.0 0.0711807892
C  C129  1  0.68150000  0.05290000  0.36420000  1.0 -0.201903906
C  C130  1  0.67420000  0.11150000  0.34290000  1.0 0.0711807892
C  C131  1  0.78200000  0.05680000  0.26060000  1.0 0.0711807892
C  C132  1  0.84720000  0.02230000  0.25520000  1.0 -0.1664724241
C  C133  1  0.65920000  0.24340000  0.35110000  1.0 -0.1501386482
C  C134  1  0.56910000  0.16340000  0.37210000  1.0 -0.1501386482
C  C135  1  0.71000000  0.11340000  0.30890000  1.0 -0.201903906
C  C136  1  0.29390000  0.19860000  0.41290000  1.0 -0.0199100003
C  C137  1  0.44770000  0.71260000  0.37690000  1.0 -0.0286655317
C  C138  1  0.30640000  0.26380000  0.43360000  1.0 0.5490234678
C  C139  1  0.15530000  0.94560000  0.19060000  1.0 -0.0595286717
C  C140  1  0.12250000  0.94790000  0.15430000  1.0 0.6020488401
C  C141  1  0.25240000  0.94340000  0.29620000  1.0 0.0711807892
C  C142  1  0.28390000  0.00820000  0.35220000  1.0 0.0792756826
C  C143  1  0.49080000  0.65050000  0.38760000  1.0 0.6206278016
C  C144  1  0.28670000  0.13410000  0.43200000  1.0 -0.1177616318
C  C145  1  0.29010000  0.13740000  0.35560000  1.0 -0.1501386482
C  C146  1  0.28390000  0.07270000  0.37390000  1.0 0.055656282
C  C147  1  0.29220000  0.19900000  0.37520000  1.0 -0.097668232
C  C148  1  0.21710000  0.91130000  0.19650000  1.0 -0.097668232
C  C149  1  0.24920000  0.91020000  0.22990000  1.0 -0.1501386482
C  C150  1  0.12210000  0.98010000  0.22020000  1.0 -0.097668232
C  C151  1  0.46980000  0.77900000  0.38310000  1.0 -0.097668232
C  C152  1  0.25120000  0.00510000  0.31880000  1.0 -0.201903906
C  C153  1  0.38000000  0.70160000  0.36130000  1.0 -0.0882194417
C  C154  1  0.28260000  0.07210000  0.41150000  1.0 -0.1501386482
C  C155  1  0.36780000  0.82750000  0.35510000  1.0 0.0711807892
C  C156  1  0.31850000  0.94710000  0.36420000  1.0 -0.201903906
C  C157  1  0.32580000  0.88850000  0.34290000  1.0 0.0711807892
C  C158  1  0.21800000  0.94320000  0.26060000  1.0 0.0711807892
C  C159  1  0.15280000  0.97770000  0.25520000  1.0 -0.1664724241
C  C160  1  0.34080000  0.75660000  0.35110000  1.0 -0.1501386482
C  C161  1  0.43090000  0.83660000  0.37210000  1.0 -0.1501386482
C  C162  1  0.29000000  0.88660000  0.30890000  1.0 -0.201903906
C  C163  1  0.30140000  0.79390000  0.91290000  1.0 -0.0199100003
C  C164  1  0.78740000  0.94770000  0.87690000  1.0 -0.0286655317
C  C165  1  0.23620000  0.80640000  0.93360000  1.0 0.5490234678
C  C166  1  0.55440000  0.65530000  0.69060000  1.0 -0.0595286717
C  C167  1  0.55210000  0.62250000  0.65430000  1.0 0.6020488401
C  C168  1  0.55660000  0.75240000  0.79620000  1.0 0.0711807892
C  C169  1  0.49180000  0.78390000  0.85220000  1.0 0.0792756826
C  C170  1  0.84950000  0.99080000  0.88760000  1.0 0.6206278016
C  C171  1  0.36590000  0.78670000  0.93200000  1.0 -0.1177616318
C  C172  1  0.36260000  0.79010000  0.85560000  1.0 -0.1501386482
C  C173  1  0.42730000  0.78390000  0.87390000  1.0 0.055656282
C  C174  1  0.30100000  0.79220000  0.87520000  1.0 -0.097668232
C  C175  1  0.58870000  0.71710000  0.69650000  1.0 -0.097668232
C  C176  1  0.58980000  0.74920000  0.72990000  1.0 -0.1501386482
C  C177  1  0.51990000  0.62210000  0.72020000  1.0 -0.097668232
C  C178  1  0.72100000  0.96980000  0.88310000  1.0 -0.097668232
C  C179  1  0.49490000  0.75120000  0.81880000  1.0 -0.201903906
C  C180  1  0.79840000  0.88000000  0.86130000  1.0 -0.0882194417
C  C181  1  0.42790000  0.78260000  0.91150000  1.0 -0.1501386482
C  C182  1  0.67250000  0.86780000  0.85510000  1.0 0.0711807892
C  C183  1  0.55290000  0.81850000  0.86420000  1.0 -0.201903906
C  C184  1  0.61150000  0.82580000  0.84290000  1.0 0.0711807892
C  C185  1  0.55680000  0.71800000  0.76060000  1.0 0.0711807892
C  C186  1  0.52230000  0.65280000  0.75520000  1.0 -0.1664724241
C  C187  1  0.74340000  0.84080000  0.85110000  1.0 -0.1501386482
C  C188  1  0.66340000  0.93090000  0.87210000  1.0 -0.1501386482
C  C189  1  0.61340000  0.79000000  0.80890000  1.0 -0.201903906
C  C190  1  0.69860000  0.20610000  0.91290000  1.0 -0.0199100003
C  C191  1  0.21260000  0.05230000  0.87690000  1.0 -0.0286655317
C  C192  1  0.76380000  0.19360000  0.93360000  1.0 0.5490234678
C  C193  1  0.44560000  0.34470000  0.69060000  1.0 -0.0595286717
C  C194  1  0.44790000  0.37750000  0.65430000  1.0 0.6020488401
C  C195  1  0.44340000  0.24760000  0.79620000  1.0 0.0711807892
C  C196  1  0.50820000  0.21610000  0.85220000  1.0 0.0792756826
C  C197  1  0.15050000  0.00920000  0.88760000  1.0 0.6206278016
C  C198  1  0.63410000  0.21330000  0.93200000  1.0 -0.1177616318
C  C199  1  0.63740000  0.20990000  0.85560000  1.0 -0.1501386482
C  C200  1  0.57270000  0.21610000  0.87390000  1.0 0.055656282
C  C201  1  0.69900000  0.20780000  0.87520000  1.0 -0.097668232
C  C202  1  0.41130000  0.28290000  0.69650000  1.0 -0.097668232
C  C203  1  0.41020000  0.25080000  0.72990000  1.0 -0.1501386482
C  C204  1  0.48010000  0.37790000  0.72020000  1.0 -0.097668232
C  C205  1  0.27900000  0.03020000  0.88310000  1.0 -0.097668232
C  C206  1  0.50510000  0.24880000  0.81880000  1.0 -0.201903906
C  C207  1  0.20160000  0.12000000  0.86130000  1.0 -0.0882194417
C  C208  1  0.57210000  0.21740000  0.91150000  1.0 -0.1501386482
C  C209  1  0.32750000  0.13220000  0.85510000  1.0 0.0711807892
C  C210  1  0.44710000  0.18150000  0.86420000  1.0 -0.201903906
C  C211  1  0.38850000  0.17420000  0.84290000  1.0 0.0711807892
C  C212  1  0.44320000  0.28200000  0.76060000  1.0 0.0711807892
C  C213  1  0.47770000  0.34720000  0.75520000  1.0 -0.1664724241
C  C214  1  0.25660000  0.15920000  0.85110000  1.0 -0.1501386482
C  C215  1  0.33660000  0.06910000  0.87210000  1.0 -0.1501386482
C  C216  1  0.38660000  0.21000000  0.80890000  1.0 -0.201903906
C  C217  1  0.97820000  0.31210000  0.95870000  0.28 0.0472915188
C  C218  1  0.93100000  0.29160000  0.98260000  0.28 -0.0199100003
C  C219  1  0.04400000  0.25000000  0.90760000  0.28 -0.2504052458
C  C220  1  0.07500000  0.31800000  0.89730000  0.28 -0.0199100003
C  C221  1  0.06100000  0.38400000  0.91760000  0.28 -0.0689728598
C  C222  1  0.01100000  0.38000000  0.94850000  0.28 -0.128683484
C  C223  1  0.02180000  0.68790000  0.95870000  0.28 0.0441481096
C  C224  1  0.06900000  0.70840000  0.98260000  0.28 -0.0199100003
C  C225  1  0.95600000  0.75000000  0.90760000  0.28 -0.2504052458
C  C226  1  0.92500000  0.68200000  0.89730000  0.28 -0.0199100003
C  C227  1  0.93900000  0.61600000  0.91760000  0.28 -0.0689728598
C  C228  1  0.98900000  0.62000000  0.94850000  0.28 -0.128683484
C  C229  1  0.18790000  0.47820000  0.45870000  0.28 0.0441481096
C  C230  1  0.20840000  0.43100000  0.48260000  0.28 -0.0199100003
C  C231  1  0.25000000  0.54400000  0.40760000  0.28 -0.2504052458
C  C232  1  0.18200000  0.57500000  0.39730000  0.28 -0.0199100003
C  C233  1  0.11600000  0.56100000  0.41760000  0.28 -0.0689728598
C  C234  1  0.12000000  0.51100000  0.44850000  0.28 -0.128683484
C  C235  1  0.81210000  0.52180000  0.45870000  0.28 0.0441481096
C  C236  1  0.79160000  0.56900000  0.48260000  0.28 -0.0199100003
C  C237  1  0.75000000  0.45600000  0.40760000  0.28 -0.2504052458
C  C238  1  0.81800000  0.42500000  0.39730000  0.28 -0.0199100003
C  C239  1  0.88400000  0.43900000  0.41760000  0.28 -0.0689728598
C  C240  1  0.88000000  0.48900000  0.44850000  0.28 -0.128683484
C  C241  1  0.52180000  0.81210000  0.54130000  0.28 0.0441481096
C  C242  1  0.56900000  0.79160000  0.51740000  0.28 -0.0199100003
C  C243  1  0.45600000  0.75000000  0.59240000  0.28 -0.2504052458
C  C244  1  0.42500000  0.81800000  0.60270000  0.28 -0.0199100003
C  C245  1  0.43900000  0.88400000  0.58240000  0.28 -0.0689728598
C  C246  1  0.48900000  0.88000000  0.55150000  0.28 -0.128683484
C  C247  1  0.47820000  0.18790000  0.54130000  0.28 0.0441481096
C  C248  1  0.43100000  0.20840000  0.51740000  0.28 -0.0199100003
C  C249  1  0.54400000  0.25000000  0.59240000  0.28 -0.2504052458
C  C250  1  0.57500000  0.18200000  0.60270000  0.28 -0.0199100003
C  C251  1  0.56100000  0.11600000  0.58240000  0.28 -0.0689728598
C  C252  1  0.51100000  0.12000000  0.55150000  0.28 -0.128683484
C  C253  1  0.31210000  0.97820000  0.04130000  0.28 0.0441481096
C  C254  1  0.29160000  0.93100000  0.01740000  0.28 -0.0199100003
C  C255  1  0.25000000  0.04400000  0.09240000  0.28 -0.2504052458
C  C256  1  0.31800000  0.07500000  0.10270000  0.28 -0.0199100003
C  C257  1  0.38400000  0.06100000  0.08240000  0.28 -0.0689728598
C  C258  1  0.38000000  0.01100000  0.05150000  0.28 -0.128683484
C  C259  1  0.68790000  0.02180000  0.04130000  0.28 0.0472915188
C  C260  1  0.70840000  0.06900000  0.01740000  0.28 -0.0199100003
C  C261  1  0.75000000  0.95600000  0.09240000  0.28 -0.2504052458
C  C262  1  0.68200000  0.92500000  0.10270000  0.28 -0.0199100003
C  C263  1  0.61600000  0.93900000  0.08240000  0.28 -0.0689728598
C  C264  1  0.62000000  0.98900000  0.05150000  0.28 -0.128683484
C  C265  1  0.95120000  0.27290000  0.99220000  0.32 -0.0199100003
C  C266  1  0.00400000  0.28840000  0.97030000  0.32 -0.0286655317
C  C267  1  0.10800000  0.27900000  0.91670000  0.32 -0.0433827495
C  C268  1  0.04790000  0.23900000  0.91300000  0.32 -0.2504052458
C  C269  1  0.11800000  0.32400000  0.94660000  0.32 -0.0286655317
C  C270  1  0.06480000  0.32700000  0.97250000  0.32 -0.0882194417
C  C271  1  0.04880000  0.72710000  0.99220000  0.32 -0.0199100003
C  C272  1  0.99600000  0.71160000  0.97030000  0.32 -0.0286655317
C  C273  1  0.89200000  0.72100000  0.91670000  0.32 -0.0433827495
C  C274  1  0.95210000  0.76100000  0.91300000  0.32 -0.2504052458
C  C275  1  0.88200000  0.67600000  0.94660000  0.32 -0.0433827495
C  C276  1  0.93520000  0.67300000  0.97250000  0.32 -0.0882194417
C  C277  1  0.22710000  0.45120000  0.49220000  0.32 -0.0199100003
C  C278  1  0.21160000  0.50400000  0.47030000  0.32 -0.0286655317
C  C279  1  0.22100000  0.60800000  0.41670000  0.32 -0.0433827495
C  C280  1  0.26100000  0.54790000  0.41300000  0.32 -0.2504052458
C  C281  1  0.17600000  0.61800000  0.44660000  0.32 -0.0433827495
C  C282  1  0.17300000  0.56480000  0.47250000  0.32 -0.0882194417
C  C283  1  0.77290000  0.54880000  0.49220000  0.32 -0.0199100003
C  C284  1  0.78840000  0.49600000  0.47030000  0.32 -0.0286655317
C  C285  1  0.77900000  0.39200000  0.41670000  0.32 -0.0433827495
C  C286  1  0.73900000  0.45210000  0.41300000  0.32 -0.2504052458
C  C287  1  0.82400000  0.38200000  0.44660000  0.32 -0.0433827495
C  C288  1  0.82700000  0.43520000  0.47250000  0.32 -0.0882194417
C  C289  1  0.54880000  0.77290000  0.50780000  0.32 -0.0199100003
C  C290  1  0.49600000  0.78840000  0.52970000  0.32 -0.0286655317
C  C291  1  0.39200000  0.77900000  0.58330000  0.32 -0.0433827495
C  C292  1  0.45210000  0.73900000  0.58700000  0.32 -0.2504052458
C  C293  1  0.38200000  0.82400000  0.55340000  0.32 -0.0433827495
C  C294  1  0.43520000  0.82700000  0.52750000  0.32 -0.0882194417
C  C295  1  0.45120000  0.22710000  0.50780000  0.32 -0.0199100003
C  C296  1  0.50400000  0.21160000  0.52970000  0.32 -0.0286655317
C  C297  1  0.60800000  0.22100000  0.58330000  0.32 -0.0433827495
C  C298  1  0.54790000  0.26100000  0.58700000  0.32 -0.2504052458
C  C299  1  0.61800000  0.17600000  0.55340000  0.32 -0.0433827495
C  C300  1  0.56480000  0.17300000  0.52750000  0.32 -0.0882194417
C  C301  1  0.27290000  0.95120000  0.00780000  0.32 -0.0199100003
C  C302  1  0.28840000  0.00400000  0.02970000  0.32 -0.0286655317
C  C303  1  0.27900000  0.10800000  0.08330000  0.32 -0.0503035649
C  C304  1  0.23900000  0.04790000  0.08700000  0.32 -0.2504052458
C  C305  1  0.32400000  0.11800000  0.05340000  0.32 -0.0433827495
C  C306  1  0.32700000  0.06480000  0.02750000  0.32 -0.0882194417
C  C307  1  0.72710000  0.04880000  0.00780000  0.32 -0.0199100003
C  C308  1  0.71160000  0.99600000  0.02970000  0.32 -0.0286655317
C  C309  1  0.72100000  0.89200000  0.08330000  0.32 -0.0503035649
C  C310  1  0.76100000  0.95210000  0.08700000  0.32 -0.2504052458
C  C311  1  0.67600000  0.88200000  0.05340000  0.32 -0.0433827495
C  C312  1  0.67300000  0.93520000  0.02750000  0.32 -0.0882194417
C  C313  1  0.94160000  0.25110000  0.95930000  0.4 0.0472915188
C  C314  1  0.05840000  0.74890000  0.95930000  0.4 0.0472915188
C  C315  1  0.24890000  0.44160000  0.45930000  0.4 0.0472915188
C  C316  1  0.75110000  0.55840000  0.45930000  0.4 0.0472915188
C  C317  1  0.55840000  0.75110000  0.54070000  0.4 0.0472915188
C  C318  1  0.44160000  0.24890000  0.54070000  0.4 0.0472915188
C  C319  1  0.25110000  0.94160000  0.04070000  0.4 0.0472915188
C  C320  1  0.74890000  0.05840000  0.04070000  0.4 0.0472915188
C  C321  1  0.99550000  0.24470000  0.93980000  0.6 0.1122154919
C  C322  1  0.00450000  0.75530000  0.93980000  0.6 0.1122154919
C  C323  1  0.25530000  0.49550000  0.43980000  0.6 0.1122154919
C  C324  1  0.74470000  0.50450000  0.43980000  0.6 0.1122154919
C  C325  1  0.50450000  0.74470000  0.56020000  0.6 0.1122154919
C  C326  1  0.49550000  0.25530000  0.56020000  0.6 0.1122154919
C  C327  1  0.24470000  0.99550000  0.06020000  0.6 0.1019011651
C  C328  1  0.75530000  0.00450000  0.06020000  0.6 0.1019011651
N  N1  1  0.91040000  0.22680000  0.97580000  0.6 -0.0689728598
N  N2  1  0.94280000  0.20140000  0.94730000  0.6 -0.0503035649
N  N3  1  0.08960000  0.77320000  0.97580000  0.6 -0.0689728598
N  N4  1  0.05720000  0.79860000  0.94730000  0.6 -0.0503035649
N  N5  1  0.27320000  0.41040000  0.47580000  0.6 -0.0689728598
N  N6  1  0.29860000  0.44280000  0.44730000  0.6 -0.0503035649
N  N7  1  0.72680000  0.58960000  0.47580000  0.6 -0.0689728598
N  N8  1  0.70140000  0.55720000  0.44730000  0.6 -0.0503035649
N  N9  1  0.58960000  0.72680000  0.52420000  0.6 -0.0689728598
N  N10  1  0.55720000  0.70140000  0.55270000  0.6 -0.0503035649
N  N11  1  0.41040000  0.27320000  0.52420000  0.6 -0.0689728598
N  N12  1  0.44280000  0.29860000  0.55270000  0.6 -0.0503035649
N  N13  1  0.22680000  0.91040000  0.02420000  0.6 -0.0689728598
N  N14  1  0.20140000  0.94280000  0.05270000  0.6 -0.0503035649
N  N15  1  0.77320000  0.08960000  0.02420000  0.6 -0.0689728598
N  N16  1  0.79860000  0.05720000  0.05270000  0.6 -0.0503035649
O  O1  1  0.81750000  0.18240000  0.08612000  1.0 -0.5617088194
O  O2  1  0.93490000  0.02630000  0.07850000  1.0 -0.9268799613
O  O3  1  0.80660000  0.23710000  0.03218000  1.0 -0.548164029
O  O4  1  0.90040000  0.13420000  0.03437000  1.0 -0.8613341044
O  O5  1  0.05210000  0.83980000  0.10187000  1.0 -0.571581323
O  O6  1  0.96010000  0.90890000  0.11540000  1.0 -0.613953207
O  O7  1  0.56190000  0.52510000  0.34836000  1.0 -0.5819371457
O  O8  1  0.65680000  0.57830000  0.37229000  1.0 -0.5819371457
O  O9  1  0.18250000  0.81760000  0.08612000  1.0 -0.5617088194
O  O10  1  0.06510000  0.97370000  0.07850000  1.0 -0.9268799613
O  O11  1  0.19340000  0.76290000  0.03218000  1.0 -0.548164029
O  O12  1  0.09960000  0.86580000  0.03437000  1.0 -0.8613341044
O  O13  1  0.94790000  0.16020000  0.10187000  1.0 -0.571581323
O  O14  1  0.03990000  0.09110000  0.11540000  1.0 -0.613953207
O  O15  1  0.43810000  0.47490000  0.34836000  1.0 -0.5819371457
O  O16  1  0.34320000  0.42170000  0.37229000  1.0 -0.5819371457
O  O17  1  0.31760000  0.31750000  0.58612000  1.0 -0.5617088194
O  O18  1  0.47370000  0.43490000  0.57850000  1.0 -0.9268799613
O  O19  1  0.26290000  0.30660000  0.53218000  1.0 -0.548164029
O  O20  1  0.36580000  0.40040000  0.53437000  1.0 -0.8613341044
O  O21  1  0.66020000  0.55210000  0.60187000  1.0 -0.571581323
O  O22  1  0.59110000  0.46010000  0.61540000  1.0 -0.613953207
O  O23  1  0.97490000  0.06190000  0.84836000  1.0 -0.5819371457
O  O24  1  0.92170000  0.15680000  0.87229000  1.0 -0.5819371457
O  O25  1  0.68240000  0.68250000  0.58612000  1.0 -0.5617088194
O  O26  1  0.52630000  0.56510000  0.57850000  1.0 -0.9268799613
O  O27  1  0.73710000  0.69340000  0.53218000  1.0 -0.548164029
O  O28  1  0.63420000  0.59960000  0.53437000  1.0 -0.8613341044
O  O29  1  0.33980000  0.44790000  0.60187000  1.0 -0.571581323
O  O30  1  0.40890000  0.53990000  0.61540000  1.0 -0.613953207
O  O31  1  0.02510000  0.93810000  0.84836000  1.0 -0.5819371457
O  O32  1  0.07830000  0.84320000  0.87229000  1.0 -0.5819371457
O  O33  1  0.68250000  0.68240000  0.41388000  1.0 -0.5617088194
O  O34  1  0.56510000  0.52630000  0.42150000  1.0 -0.9268799613
O  O35  1  0.69340000  0.73710000  0.46782000  1.0 -0.548164029
O  O36  1  0.59960000  0.63420000  0.46563000  1.0 -0.8613341044
O  O37  1  0.44790000  0.33980000  0.39813000  1.0 -0.571581323
O  O38  1  0.53990000  0.40890000  0.38460000  1.0 -0.613953207
O  O39  1  0.93810000  0.02510000  0.15164000  1.0 -0.5819371457
O  O40  1  0.84320000  0.07830000  0.12771000  1.0 -0.5819371457
O  O41  1  0.31750000  0.31760000  0.41388000  1.0 -0.5617088194
O  O42  1  0.43490000  0.47370000  0.42150000  1.0 -0.9268799613
O  O43  1  0.30660000  0.26290000  0.46782000  1.0 -0.548164029
O  O44  1  0.40040000  0.36580000  0.46563000  1.0 -0.8613341044
O  O45  1  0.55210000  0.66020000  0.39813000  1.0 -0.571581323
O  O46  1  0.46010000  0.59110000  0.38460000  1.0 -0.613953207
O  O47  1  0.06190000  0.97490000  0.15164000  1.0 -0.5819371457
O  O48  1  0.15680000  0.92170000  0.12771000  1.0 -0.5819371457
O  O49  1  0.18240000  0.81750000  0.91388000  1.0 -0.5617088194
O  O50  1  0.02630000  0.93490000  0.92150000  1.0 -0.9268799613
O  O51  1  0.23710000  0.80660000  0.96782000  1.0 -0.548164029
O  O52  1  0.13420000  0.90040000  0.96563000  1.0 -0.8613341044
O  O53  1  0.83980000  0.05210000  0.89813000  1.0 -0.571581323
O  O54  1  0.90890000  0.96010000  0.88460000  1.0 -0.613953207
O  O55  1  0.52510000  0.56190000  0.65164000  1.0 -0.5819371457
O  O56  1  0.57830000  0.65680000  0.62771000  1.0 -0.5819371457
O  O57  1  0.81760000  0.18250000  0.91388000  1.0 -0.5617088194
O  O58  1  0.97370000  0.06510000  0.92150000  1.0 -0.9268799613
O  O59  1  0.76290000  0.19340000  0.96782000  1.0 -0.548164029
O  O60  1  0.86580000  0.09960000  0.96563000  1.0 -0.8613341044
O  O61  1  0.16020000  0.94790000  0.89813000  1.0 -0.571581323
O  O62  1  0.09110000  0.03990000  0.88460000  1.0 -0.613953207
O  O63  1  0.47490000  0.43810000  0.65164000  1.0 -0.5819371457
O  O64  1  0.42170000  0.34320000  0.62771000  1.0 -0.5819371457
O  O65  1  0.89410000  0.24100000  0.98300000  0.4 -0.128683484
O  O66  1  0.95650000  0.20380000  0.93550000  0.4 -0.0595286717
O  O67  1  0.10590000  0.75900000  0.98300000  0.4 -0.128683484
O  O68  1  0.04350000  0.79620000  0.93550000  0.4 -0.0595286717
O  O69  1  0.25900000  0.39410000  0.48300000  0.4 -0.128683484
O  O70  1  0.29620000  0.45650000  0.43550000  0.4 -0.0595286717
O  O71  1  0.74100000  0.60590000  0.48300000  0.4 -0.128683484
O  O72  1  0.70380000  0.54350000  0.43550000  0.4 -0.0595286717
O  O73  1  0.60590000  0.74100000  0.51700000  0.4 -0.128683484
O  O74  1  0.54350000  0.70380000  0.56450000  0.4 -0.0595286717
O  O75  1  0.39410000  0.25900000  0.51700000  0.4 -0.128683484
O  O76  1  0.45650000  0.29620000  0.56450000  0.4 -0.0595286717
O  O77  1  0.24100000  0.89410000  0.01700000  0.4 -0.128683484
O  O78  1  0.20380000  0.95650000  0.06450000  0.4 -0.0595286717
O  O79  1  0.75900000  0.10590000  0.01700000  0.4 -0.128683484
O  O80  1  0.79620000  0.04350000  0.06450000  0.4 -0.0595286717
