# DDEC6 charges by PACMAN v1.1 (https://github.com/mtap-research/PACMAN-charge/)
data_d0qm01097a2_2_FSR_pacman
_symmetry_space_group_name_H-M   'P 1'
_cell_length_a   25.85860000
_cell_length_b   25.85860000
_cell_length_c   21.05090000
_cell_angle_alpha   90.00000000
_cell_angle_beta   90.00000000
_cell_angle_gamma   90.00000000
_symmetry_Int_Tables_number   1
_chemical_formula_structural   Zn24H252C320.16N112O84.32
_chemical_formula_sum   'Zn24 H252 C320.16 N112 O84.32'
_cell_volume   14076.04623333
_cell_formula_units_Z   1
loop_
 _symmetry_equiv_pos_site_id
 _symmetry_equiv_pos_as_xyz
  1  'x, y, z'
loop_
 _atom_site_type_symbol
 _atom_site_label
 _atom_site_symmetry_multiplicity
 _atom_site_fract_x
 _atom_site_fract_y
 _atom_site_fract_z
 _atom_site_occupancy
 _atom_site_charge
Zn  Zn1  1  0.00000000  0.69273000  0.00000000  1.0 0.6693523969
Zn  Zn2  1  0.00000000  0.30727000  0.00000000  1.0 0.6693523969
Zn  Zn3  1  0.69273000  0.00000000  0.00000000  1.0 0.6693523969
Zn  Zn4  1  0.30727000  0.00000000  0.00000000  1.0 0.6693523969
Zn  Zn5  1  0.50000000  0.80727000  0.50000000  1.0 0.6693523969
Zn  Zn6  1  0.50000000  0.19273000  0.50000000  1.0 0.6693523969
Zn  Zn7  1  0.80727000  0.50000000  0.50000000  1.0 0.6693523969
Zn  Zn8  1  0.19273000  0.50000000  0.50000000  1.0 0.6693523969
Zn  Zn9  1  0.95076000  0.53238000  0.80902000  1.0 0.686936311
Zn  Zn10  1  0.04924000  0.46762000  0.80902000  1.0 0.686936311
Zn  Zn11  1  0.53238000  0.04924000  0.80902000  1.0 0.686936311
Zn  Zn12  1  0.46762000  0.95076000  0.80902000  1.0 0.686936311
Zn  Zn13  1  0.95076000  0.46762000  0.19098000  1.0 0.686936311
Zn  Zn14  1  0.04924000  0.53238000  0.19098000  1.0 0.686936311
Zn  Zn15  1  0.53238000  0.95076000  0.19098000  1.0 0.686936311
Zn  Zn16  1  0.46762000  0.04924000  0.19098000  1.0 0.686936311
Zn  Zn17  1  0.54924000  0.96762000  0.69098000  1.0 0.686936311
Zn  Zn18  1  0.45076000  0.03238000  0.69098000  1.0 0.686936311
Zn  Zn19  1  0.96762000  0.45076000  0.69098000  1.0 0.686936311
Zn  Zn20  1  0.03238000  0.54924000  0.69098000  1.0 0.686936311
Zn  Zn21  1  0.54924000  0.03238000  0.30902000  1.0 0.686936311
Zn  Zn22  1  0.45076000  0.96762000  0.30902000  1.0 0.686936311
Zn  Zn23  1  0.96762000  0.54924000  0.30902000  1.0 0.686936311
Zn  Zn24  1  0.03238000  0.45076000  0.30902000  1.0 0.686936311
H  H1  1  0.95238000  0.63878000  0.88604000  1.0 0.1090574279
H  H2  1  0.04762000  0.36122000  0.88604000  1.0 0.1090574279
H  H3  1  0.63878000  0.04762000  0.88604000  1.0 0.1090574279
H  H4  1  0.36122000  0.95238000  0.88604000  1.0 0.1090574279
H  H5  1  0.95238000  0.36122000  0.11396000  1.0 0.1090574279
H  H6  1  0.04762000  0.63878000  0.11396000  1.0 0.1090574279
H  H7  1  0.63878000  0.95238000  0.11396000  1.0 0.1090574279
H  H8  1  0.36122000  0.04762000  0.11396000  1.0 0.1090574279
H  H9  1  0.54762000  0.86122000  0.61396000  1.0 0.1090574279
H  H10  1  0.45238000  0.13878000  0.61396000  1.0 0.1090574279
H  H11  1  0.86122000  0.45238000  0.61396000  1.0 0.1090574279
H  H12  1  0.13878000  0.54762000  0.61396000  1.0 0.1090574279
H  H13  1  0.54762000  0.13878000  0.38604000  1.0 0.1090574279
H  H14  1  0.45238000  0.86122000  0.38604000  1.0 0.1090574279
H  H15  1  0.86122000  0.54762000  0.38604000  1.0 0.1090574279
H  H16  1  0.13878000  0.45238000  0.38604000  1.0 0.1090574279
H  H17  1  0.14008000  0.49581000  0.89122000  1.0 0.1017102763
H  H18  1  0.85992000  0.50419000  0.89122000  1.0 0.1017102763
H  H19  1  0.49581000  0.85992000  0.89122000  1.0 0.1017102763
H  H20  1  0.50419000  0.14008000  0.89122000  1.0 0.1017102763
H  H21  1  0.14008000  0.50419000  0.10878000  1.0 0.1017102763
H  H22  1  0.85992000  0.49581000  0.10878000  1.0 0.1017102763
H  H23  1  0.49581000  0.14008000  0.10878000  1.0 0.1017102763
H  H24  1  0.50419000  0.85992000  0.10878000  1.0 0.1017102763
H  H25  1  0.35992000  0.00419000  0.60878000  1.0 0.1017102763
H  H26  1  0.64008000  0.99581000  0.60878000  1.0 0.1017102763
H  H27  1  0.00419000  0.64008000  0.60878000  1.0 0.1017102763
H  H28  1  0.99581000  0.35992000  0.60878000  1.0 0.1017102763
H  H29  1  0.35992000  0.99581000  0.39122000  1.0 0.1017102763
H  H30  1  0.64008000  0.00419000  0.39122000  1.0 0.1017102763
H  H31  1  0.00419000  0.35992000  0.39122000  1.0 0.1017102763
H  H32  1  0.99581000  0.64008000  0.39122000  1.0 0.1017102763
H  H33  1  0.63220000  0.77368000  0.61002000  0.25 0.1017102763
H  H34  1  0.36780000  0.22632000  0.61002000  0.25 0.1017102763
H  H35  1  0.77368000  0.36780000  0.61002000  0.25 0.1017102763
H  H36  1  0.22632000  0.63220000  0.61002000  0.25 0.1017102763
H  H37  1  0.63220000  0.22632000  0.38998000  0.25 0.1017102763
H  H38  1  0.36780000  0.77368000  0.38998000  0.25 0.1017102763
H  H39  1  0.77368000  0.63220000  0.38998000  0.25 0.1017102763
H  H40  1  0.22632000  0.36780000  0.38998000  0.25 0.1017102763
H  H41  1  0.86780000  0.72632000  0.88998000  0.25 0.1017102763
H  H42  1  0.13220000  0.27368000  0.88998000  0.25 0.1017102763
H  H43  1  0.72632000  0.13220000  0.88998000  0.25 0.1017102763
H  H44  1  0.27368000  0.86780000  0.88998000  0.25 0.1017102763
H  H45  1  0.86780000  0.27368000  0.11002000  0.25 0.1017102763
H  H46  1  0.13220000  0.72632000  0.11002000  0.25 0.1017102763
H  H47  1  0.72632000  0.86780000  0.11002000  0.25 0.1017102763
H  H48  1  0.27368000  0.13220000  0.11002000  0.25 0.1017102763
H  H49  1  0.68789000  0.60538000  0.57591000  0.25 0.1509892862
H  H50  1  0.31211000  0.39462000  0.57591000  0.25 0.1509892862
H  H51  1  0.60538000  0.31211000  0.57591000  0.25 0.1509892862
H  H52  1  0.39462000  0.68789000  0.57591000  0.25 0.1509892862
H  H53  1  0.68789000  0.39462000  0.42409000  0.25 0.1509892862
H  H54  1  0.31211000  0.60538000  0.42409000  0.25 0.1509892862
H  H55  1  0.60538000  0.68789000  0.42409000  0.25 0.1509892862
H  H56  1  0.39462000  0.31211000  0.42409000  0.25 0.1509892862
H  H57  1  0.81211000  0.89462000  0.92409000  0.25 0.1509892862
H  H58  1  0.18789000  0.10538000  0.92409000  0.25 0.1509892862
H  H59  1  0.89462000  0.18789000  0.92409000  0.25 0.1509892862
H  H60  1  0.10538000  0.81211000  0.92409000  0.25 0.1509892862
H  H61  1  0.81211000  0.10538000  0.07591000  0.25 0.1509892862
H  H62  1  0.18789000  0.89462000  0.07591000  0.25 0.1509892862
H  H63  1  0.89462000  0.81211000  0.07591000  0.25 0.1509892862
H  H64  1  0.10538000  0.18789000  0.07591000  0.25 0.1509892862
H  H65  1  0.71952000  0.58387000  0.68892000  0.25 0.1422011359
H  H66  1  0.28048000  0.41613000  0.68892000  0.25 0.1422011359
H  H67  1  0.58387000  0.28048000  0.68892000  0.25 0.1422011359
H  H68  1  0.41613000  0.71952000  0.68892000  0.25 0.1422011359
H  H69  1  0.71952000  0.41613000  0.31108000  0.25 0.1422011359
H  H70  1  0.28048000  0.58387000  0.31108000  0.25 0.1422011359
H  H71  1  0.58387000  0.71952000  0.31108000  0.25 0.1422011359
H  H72  1  0.41613000  0.28048000  0.31108000  0.25 0.1422011359
H  H73  1  0.78048000  0.91613000  0.81108000  0.25 0.1422011359
H  H74  1  0.21952000  0.08387000  0.81108000  0.25 0.1422011359
H  H75  1  0.91613000  0.21952000  0.81108000  0.25 0.1422011359
H  H76  1  0.08387000  0.78048000  0.81108000  0.25 0.1422011359
H  H77  1  0.78048000  0.08387000  0.18892000  0.25 0.1422011359
H  H78  1  0.21952000  0.91613000  0.18892000  0.25 0.1422011359
H  H79  1  0.91613000  0.78048000  0.18892000  0.25 0.1422011359
H  H80  1  0.08387000  0.21952000  0.18892000  0.25 0.1422011359
H  H81  1  0.79403000  0.55373000  0.73792000  0.25 0.1198618425
H  H82  1  0.20597000  0.44627000  0.73792000  0.25 0.1198618425
H  H83  1  0.55373000  0.20597000  0.73792000  0.25 0.1198618425
H  H84  1  0.44627000  0.79403000  0.73792000  0.25 0.1198618425
H  H85  1  0.79403000  0.44627000  0.26208000  0.25 0.1198618425
H  H86  1  0.20597000  0.55373000  0.26208000  0.25 0.1198618425
H  H87  1  0.55373000  0.79403000  0.26208000  0.25 0.1198618425
H  H88  1  0.44627000  0.20597000  0.26208000  0.25 0.1198618425
H  H89  1  0.70597000  0.94627000  0.76208000  0.25 0.1198618425
H  H90  1  0.29403000  0.05373000  0.76208000  0.25 0.1198618425
H  H91  1  0.94627000  0.29403000  0.76208000  0.25 0.1198618425
H  H92  1  0.05373000  0.70597000  0.76208000  0.25 0.1198618425
H  H93  1  0.70597000  0.05373000  0.23792000  0.25 0.1198618425
H  H94  1  0.29403000  0.94627000  0.23792000  0.25 0.1198618425
H  H95  1  0.94627000  0.70597000  0.23792000  0.25 0.1198618425
H  H96  1  0.05373000  0.29403000  0.23792000  0.25 0.1198618425
H  H97  1  0.86983000  0.68172000  0.68620000  0.25 0.1198618425
H  H98  1  0.13017000  0.31828000  0.68620000  0.25 0.1198618425
H  H99  1  0.68172000  0.13017000  0.68620000  0.25 0.1198618425
H  H100  1  0.31828000  0.86983000  0.68620000  0.25 0.1198618425
H  H101  1  0.86983000  0.31828000  0.31380000  0.25 0.1198618425
H  H102  1  0.13017000  0.68172000  0.31380000  0.25 0.1198618425
H  H103  1  0.68172000  0.86983000  0.31380000  0.25 0.1198618425
H  H104  1  0.31828000  0.13017000  0.31380000  0.25 0.1198618425
H  H105  1  0.63017000  0.81828000  0.81380000  0.25 0.1198618425
H  H106  1  0.36983000  0.18172000  0.81380000  0.25 0.1198618425
H  H107  1  0.81828000  0.36983000  0.81380000  0.25 0.1198618425
H  H108  1  0.18172000  0.63017000  0.81380000  0.25 0.1198618425
H  H109  1  0.63017000  0.18172000  0.18620000  0.25 0.1198618425
H  H110  1  0.36983000  0.81828000  0.18620000  0.25 0.1198618425
H  H111  1  0.81828000  0.63017000  0.18620000  0.25 0.1198618425
H  H112  1  0.18172000  0.36983000  0.18620000  0.25 0.1198618425
H  H113  1  0.70775000  0.78418000  0.68070000  0.25 0.1939726403
H  H114  1  0.29225000  0.21582000  0.68070000  0.25 0.1939726403
H  H115  1  0.78418000  0.29225000  0.68070000  0.25 0.1939726403
H  H116  1  0.21582000  0.70775000  0.68070000  0.25 0.1939726403
H  H117  1  0.70775000  0.21582000  0.31930000  0.25 0.1939726403
H  H118  1  0.29225000  0.78418000  0.31930000  0.25 0.1939726403
H  H119  1  0.78418000  0.70775000  0.31930000  0.25 0.1939726403
H  H120  1  0.21582000  0.29225000  0.31930000  0.25 0.1939726403
H  H121  1  0.79225000  0.71582000  0.81930000  0.25 0.1939726403
H  H122  1  0.20775000  0.28418000  0.81930000  0.25 0.1939726403
H  H123  1  0.71582000  0.20775000  0.81930000  0.25 0.1939726403
H  H124  1  0.28418000  0.79225000  0.81930000  0.25 0.1939726403
H  H125  1  0.79225000  0.28418000  0.18070000  0.25 0.1939726403
H  H126  1  0.20775000  0.71582000  0.18070000  0.25 0.1939726403
H  H127  1  0.71582000  0.79225000  0.18070000  0.25 0.1939726403
H  H128  1  0.28418000  0.20775000  0.18070000  0.25 0.1939726403
H  H129  1  0.74055000  0.73885000  0.69751000  0.25 0.3095990977
H  H130  1  0.25945000  0.26115000  0.69751000  0.25 0.3095990977
H  H131  1  0.73885000  0.25945000  0.69751000  0.25 0.3095990977
H  H132  1  0.26115000  0.74055000  0.69751000  0.25 0.3095990977
H  H133  1  0.74055000  0.26115000  0.30249000  0.25 0.3045146834
H  H134  1  0.25945000  0.73885000  0.30249000  0.25 0.3095990977
H  H135  1  0.73885000  0.74055000  0.30249000  0.25 0.3095990977
H  H136  1  0.26115000  0.25945000  0.30249000  0.25 0.3095990977
H  H137  1  0.75945000  0.76115000  0.80249000  0.25 0.3095990977
H  H138  1  0.24055000  0.23885000  0.80249000  0.25 0.3095990977
H  H139  1  0.76115000  0.24055000  0.80249000  0.25 0.3095990977
H  H140  1  0.23885000  0.75945000  0.80249000  0.25 0.3095990977
H  H141  1  0.75945000  0.23885000  0.19751000  0.25 0.3045146834
H  H142  1  0.24055000  0.76115000  0.19751000  0.25 0.3095990977
H  H143  1  0.76115000  0.75945000  0.19751000  0.25 0.3095990977
H  H144  1  0.23885000  0.24055000  0.19751000  0.25 0.3095990977
H  H145  1  0.82323000  0.74730000  0.62646000  0.25 0.2371034832
H  H146  1  0.17677000  0.25270000  0.62646000  0.25 0.2371034832
H  H147  1  0.74730000  0.17677000  0.62646000  0.25 0.2371034832
H  H148  1  0.25270000  0.82323000  0.62646000  0.25 0.2371034832
H  H149  1  0.82323000  0.25270000  0.37354000  0.25 0.2371034832
H  H150  1  0.17677000  0.74730000  0.37354000  0.25 0.2371034832
H  H151  1  0.74730000  0.82323000  0.37354000  0.25 0.2371034832
H  H152  1  0.25270000  0.17677000  0.37354000  0.25 0.2371034832
H  H153  1  0.67677000  0.75270000  0.87354000  0.25 0.2371034832
H  H154  1  0.32323000  0.24730000  0.87354000  0.25 0.2371034832
H  H155  1  0.75270000  0.32323000  0.87354000  0.25 0.2371034832
H  H156  1  0.24730000  0.67677000  0.87354000  0.25 0.2371034832
H  H157  1  0.67677000  0.24730000  0.12646000  0.25 0.2371034832
H  H158  1  0.32323000  0.75270000  0.12646000  0.25 0.2371034832
H  H159  1  0.75270000  0.67677000  0.12646000  0.25 0.2371034832
H  H160  1  0.24730000  0.32323000  0.12646000  0.25 0.2371034832
H  H161  1  0.76785000  0.74001000  0.60918000  0.25 0.1422011359
H  H162  1  0.23215000  0.25999000  0.60918000  0.25 0.1422011359
H  H163  1  0.74001000  0.23215000  0.60918000  0.25 0.1422011359
H  H164  1  0.25999000  0.76785000  0.60918000  0.25 0.1422011359
H  H165  1  0.76785000  0.25999000  0.39082000  0.25 0.1422011359
H  H166  1  0.23215000  0.74001000  0.39082000  0.25 0.1422011359
H  H167  1  0.74001000  0.76785000  0.39082000  0.25 0.1422011359
H  H168  1  0.25999000  0.23215000  0.39082000  0.25 0.1422011359
H  H169  1  0.73215000  0.75999000  0.89082000  0.25 0.1422011359
H  H170  1  0.26785000  0.24001000  0.89082000  0.25 0.1422011359
H  H171  1  0.75999000  0.26785000  0.89082000  0.25 0.1422011359
H  H172  1  0.24001000  0.73215000  0.89082000  0.25 0.1422011359
H  H173  1  0.73215000  0.24001000  0.10918000  0.25 0.1422011359
H  H174  1  0.26785000  0.75999000  0.10918000  0.25 0.1422011359
H  H175  1  0.75999000  0.73215000  0.10918000  0.25 0.1422011359
H  H176  1  0.24001000  0.26785000  0.10918000  0.25 0.1422011359
H  H177  1  0.16723000  0.60282000  0.08514000  0.45 0.1090574279
H  H178  1  0.83277000  0.39718000  0.08514000  0.45 0.1090574279
H  H179  1  0.60282000  0.83277000  0.08514000  0.45 0.1090574279
H  H180  1  0.39718000  0.16723000  0.08514000  0.45 0.1090574279
H  H181  1  0.16723000  0.39718000  0.91486000  0.45 0.1090574279
H  H182  1  0.83277000  0.60282000  0.91486000  0.45 0.1090574279
H  H183  1  0.60282000  0.16723000  0.91486000  0.45 0.1090574279
H  H184  1  0.39718000  0.83277000  0.91486000  0.45 0.1090574279
H  H185  1  0.33277000  0.89718000  0.41486000  0.45 0.1090574279
H  H186  1  0.66723000  0.10282000  0.41486000  0.45 0.1090574279
H  H187  1  0.89718000  0.66723000  0.41486000  0.45 0.1090574279
H  H188  1  0.10282000  0.33277000  0.41486000  0.45 0.1090574279
H  H189  1  0.33277000  0.10282000  0.58514000  0.45 0.1090574279
H  H190  1  0.66723000  0.89718000  0.58514000  0.45 0.1090574279
H  H191  1  0.89718000  0.33277000  0.58514000  0.45 0.1090574279
H  H192  1  0.10282000  0.66723000  0.58514000  0.45 0.1090574279
H  H193  1  0.11355000  0.66580000  0.99738000  0.5 0.2603448034
H  H194  1  0.88645000  0.33420000  0.99738000  0.5 0.2603448034
H  H195  1  0.66580000  0.88645000  0.99738000  0.5 0.2603448034
H  H196  1  0.33420000  0.11355000  0.99738000  0.5 0.2603448034
H  H197  1  0.11355000  0.33420000  0.00262000  0.5 0.2603448034
H  H198  1  0.88645000  0.66580000  0.00262000  0.5 0.2603448034
H  H199  1  0.66580000  0.11355000  0.00262000  0.5 0.2603448034
H  H200  1  0.33420000  0.88645000  0.00262000  0.5 0.2603448034
H  H201  1  0.38645000  0.83420000  0.50262000  0.5 0.2603448034
H  H202  1  0.61355000  0.16580000  0.50262000  0.5 0.2603448034
H  H203  1  0.83420000  0.61355000  0.50262000  0.5 0.2603448034
H  H204  1  0.16580000  0.38645000  0.50262000  0.5 0.2603448034
H  H205  1  0.38645000  0.16580000  0.49738000  0.5 0.2603448034
H  H206  1  0.61355000  0.83420000  0.49738000  0.5 0.2603448034
H  H207  1  0.83420000  0.38645000  0.49738000  0.5 0.2603448034
H  H208  1  0.16580000  0.61355000  0.49738000  0.5 0.2603448034
H  H209  1  0.10916000  0.66079000  0.00626000  0.5 0.2603448034
H  H210  1  0.89084000  0.33921000  0.00626000  0.5 0.2603448034
H  H211  1  0.66079000  0.89084000  0.00626000  0.5 0.2603448034
H  H212  1  0.33921000  0.10916000  0.00626000  0.5 0.2603448034
H  H213  1  0.10916000  0.33921000  0.99374000  0.5 0.2603448034
H  H214  1  0.89084000  0.66079000  0.99374000  0.5 0.2603448034
H  H215  1  0.66079000  0.10916000  0.99374000  0.5 0.2603448034
H  H216  1  0.33921000  0.89084000  0.99374000  0.5 0.2603448034
H  H217  1  0.39084000  0.83921000  0.49374000  0.5 0.2603448034
H  H218  1  0.60916000  0.16079000  0.49374000  0.5 0.2603448034
H  H219  1  0.83921000  0.60916000  0.49374000  0.5 0.2603448034
H  H220  1  0.16079000  0.39084000  0.49374000  0.5 0.2603448034
H  H221  1  0.39084000  0.16079000  0.50626000  0.5 0.2603448034
H  H222  1  0.60916000  0.83921000  0.50626000  0.5 0.2603448034
H  H223  1  0.83921000  0.39084000  0.50626000  0.5 0.2603448034
H  H224  1  0.16079000  0.60916000  0.50626000  0.5 0.2603448034
H  H225  1  0.18239000  0.59181000  0.03571000  0.5 0.1198618425
H  H226  1  0.81761000  0.40819000  0.03571000  0.5 0.1198618425
H  H227  1  0.59181000  0.81761000  0.03571000  0.5 0.1198618425
H  H228  1  0.40819000  0.18239000  0.03571000  0.5 0.1198618425
H  H229  1  0.18239000  0.40819000  0.96429000  0.5 0.1198618425
H  H230  1  0.81761000  0.59181000  0.96429000  0.5 0.1198618425
H  H231  1  0.59181000  0.18239000  0.96429000  0.5 0.1198618425
H  H232  1  0.40819000  0.81761000  0.96429000  0.5 0.1198618425
H  H233  1  0.31761000  0.90819000  0.46429000  0.5 0.1198618425
H  H234  1  0.68239000  0.09181000  0.46429000  0.5 0.1198618425
H  H235  1  0.90819000  0.68239000  0.46429000  0.5 0.1198618425
H  H236  1  0.09181000  0.31761000  0.46429000  0.5 0.1198618425
H  H237  1  0.31761000  0.09181000  0.53571000  0.5 0.1198618425
H  H238  1  0.68239000  0.90819000  0.53571000  0.5 0.1198618425
H  H239  1  0.90819000  0.31761000  0.53571000  0.5 0.1198618425
H  H240  1  0.09181000  0.68239000  0.53571000  0.5 0.1198618425
H  H241  1  0.17839000  0.64748000  0.06587000  0.5 0.0799844335
H  H242  1  0.82161000  0.35252000  0.06587000  0.5 0.0799844335
H  H243  1  0.64748000  0.82161000  0.06587000  0.5 0.0799844335
H  H244  1  0.35252000  0.17839000  0.06587000  0.5 0.0799844335
H  H245  1  0.17839000  0.35252000  0.93413000  0.5 0.0799844335
H  H246  1  0.82161000  0.64748000  0.93413000  0.5 0.0799844335
H  H247  1  0.64748000  0.17839000  0.93413000  0.5 0.0799844335
H  H248  1  0.35252000  0.82161000  0.93413000  0.5 0.0799844335
H  H249  1  0.32161000  0.85252000  0.43413000  0.5 0.0799844335
H  H250  1  0.67839000  0.14748000  0.43413000  0.5 0.0799844335
H  H251  1  0.85252000  0.67839000  0.43413000  0.5 0.0799844335
H  H252  1  0.14748000  0.32161000  0.43413000  0.5 0.0799844335
H  H253  1  0.32161000  0.14748000  0.56587000  0.5 0.0799844335
H  H254  1  0.67839000  0.85252000  0.56587000  0.5 0.0799844335
H  H255  1  0.85252000  0.32161000  0.56587000  0.5 0.0799844335
H  H256  1  0.14748000  0.67839000  0.56587000  0.5 0.0799844335
H  H257  1  0.19023000  0.67253000  0.03021000  0.5 0.0738981809
H  H258  1  0.80977000  0.32747000  0.03021000  0.5 0.0738981809
H  H259  1  0.67253000  0.80977000  0.03021000  0.5 0.0738981809
H  H260  1  0.32747000  0.19023000  0.03021000  0.5 0.0738981809
H  H261  1  0.19023000  0.32747000  0.96979000  0.5 0.0738981809
H  H262  1  0.80977000  0.67253000  0.96979000  0.5 0.0738981809
H  H263  1  0.67253000  0.19023000  0.96979000  0.5 0.0738981809
H  H264  1  0.32747000  0.80977000  0.96979000  0.5 0.0738981809
H  H265  1  0.30977000  0.82747000  0.46979000  0.5 0.0738981809
H  H266  1  0.69023000  0.17253000  0.46979000  0.5 0.0738981809
H  H267  1  0.82747000  0.69023000  0.46979000  0.5 0.0738981809
H  H268  1  0.17253000  0.30977000  0.46979000  0.5 0.0738981809
H  H269  1  0.30977000  0.17253000  0.53021000  0.5 0.0738981809
H  H270  1  0.69023000  0.82747000  0.53021000  0.5 0.0738981809
H  H271  1  0.82747000  0.30977000  0.53021000  0.5 0.0738981809
H  H272  1  0.17253000  0.69023000  0.53021000  0.5 0.0738981809
H  H273  1  0.20501000  0.63279000  0.97660000  0.5 0.1198618425
H  H274  1  0.79499000  0.36721000  0.97660000  0.5 0.1198618425
H  H275  1  0.63279000  0.79499000  0.97660000  0.5 0.1198618425
H  H276  1  0.36721000  0.20501000  0.97660000  0.5 0.1198618425
H  H277  1  0.20501000  0.36721000  0.02340000  0.5 0.1198618425
H  H278  1  0.79499000  0.63279000  0.02340000  0.5 0.1198618425
H  H279  1  0.63279000  0.20501000  0.02340000  0.5 0.1198618425
H  H280  1  0.36721000  0.79499000  0.02340000  0.5 0.1198618425
H  H281  1  0.29499000  0.86721000  0.52340000  0.5 0.1198618425
H  H282  1  0.70501000  0.13279000  0.52340000  0.5 0.1198618425
H  H283  1  0.86721000  0.70501000  0.52340000  0.5 0.1198618425
H  H284  1  0.13279000  0.29499000  0.52340000  0.5 0.1198618425
H  H285  1  0.29499000  0.13279000  0.47660000  0.5 0.1198618425
H  H286  1  0.70501000  0.86721000  0.47660000  0.5 0.1198618425
H  H287  1  0.86721000  0.29499000  0.47660000  0.5 0.1198618425
H  H288  1  0.13279000  0.70501000  0.47660000  0.5 0.1198618425
H  H289  1  0.20439000  0.66314000  0.95651000  0.55 0.1829845528
H  H290  1  0.79561000  0.33686000  0.95651000  0.55 0.1829845528
H  H291  1  0.66314000  0.79561000  0.95651000  0.55 0.1829845528
H  H292  1  0.33686000  0.20439000  0.95651000  0.55 0.1829845528
H  H293  1  0.20439000  0.33686000  0.04349000  0.55 0.1829845528
H  H294  1  0.79561000  0.66314000  0.04349000  0.55 0.1829845528
H  H295  1  0.66314000  0.20439000  0.04349000  0.55 0.1829845528
H  H296  1  0.33686000  0.79561000  0.04349000  0.55 0.1829845528
H  H297  1  0.29561000  0.83686000  0.54349000  0.55 0.1829845528
H  H298  1  0.70439000  0.16314000  0.54349000  0.55 0.1829845528
H  H299  1  0.83686000  0.70439000  0.54349000  0.55 0.1829845528
H  H300  1  0.16314000  0.29561000  0.54349000  0.55 0.1829845528
H  H301  1  0.29561000  0.16314000  0.45651000  0.55 0.1829845528
H  H302  1  0.70439000  0.83686000  0.45651000  0.55 0.1829845528
H  H303  1  0.83686000  0.29561000  0.45651000  0.55 0.1829845528
H  H304  1  0.16314000  0.70439000  0.45651000  0.55 0.1829845528
H  H305  1  0.83851000  0.57959000  0.66864000  0.75 0.1017102763
H  H306  1  0.16149000  0.42041000  0.66864000  0.75 0.1017102763
H  H307  1  0.57959000  0.16149000  0.66864000  0.75 0.1017102763
H  H308  1  0.42041000  0.83851000  0.66864000  0.75 0.1017102763
H  H309  1  0.83851000  0.42041000  0.33136000  0.75 0.1017102763
H  H310  1  0.16149000  0.57959000  0.33136000  0.75 0.1017102763
H  H311  1  0.57959000  0.83851000  0.33136000  0.75 0.1017102763
H  H312  1  0.42041000  0.16149000  0.33136000  0.75 0.1017102763
H  H313  1  0.66149000  0.92041000  0.83136000  0.75 0.1017102763
H  H314  1  0.33851000  0.07959000  0.83136000  0.75 0.1017102763
H  H315  1  0.92041000  0.33851000  0.83136000  0.75 0.1017102763
H  H316  1  0.07959000  0.66149000  0.83136000  0.75 0.1017102763
H  H317  1  0.66149000  0.07959000  0.16864000  0.75 0.1017102763
H  H318  1  0.33851000  0.92041000  0.16864000  0.75 0.1017102763
H  H319  1  0.92041000  0.66149000  0.16864000  0.75 0.1017102763
H  H320  1  0.07959000  0.33851000  0.16864000  0.75 0.1017102763
H  H321  1  0.76717000  0.61084000  0.61393000  0.75 0.1090574279
H  H322  1  0.23283000  0.38916000  0.61393000  0.75 0.1090574279
H  H323  1  0.61084000  0.23283000  0.61393000  0.75 0.1090574279
H  H324  1  0.38916000  0.76717000  0.61393000  0.75 0.1090574279
H  H325  1  0.76717000  0.38916000  0.38607000  0.75 0.1090574279
H  H326  1  0.23283000  0.61084000  0.38607000  0.75 0.1090574279
H  H327  1  0.61084000  0.76717000  0.38607000  0.75 0.1090574279
H  H328  1  0.38916000  0.23283000  0.38607000  0.75 0.1090574279
H  H329  1  0.73283000  0.88916000  0.88607000  0.75 0.1090574279
H  H330  1  0.26717000  0.11084000  0.88607000  0.75 0.1090574279
H  H331  1  0.88916000  0.26717000  0.88607000  0.75 0.1090574279
H  H332  1  0.11084000  0.73283000  0.88607000  0.75 0.1090574279
H  H333  1  0.73283000  0.11084000  0.11393000  0.75 0.1090574279
H  H334  1  0.26717000  0.88916000  0.11393000  0.75 0.1090574279
H  H335  1  0.88916000  0.73283000  0.11393000  0.75 0.1090574279
H  H336  1  0.11084000  0.26717000  0.11393000  0.75 0.1090574279
H  H337  1  0.78631000  0.64619000  0.82875000  0.75 0.1017102763
H  H338  1  0.21369000  0.35381000  0.82875000  0.75 0.1017102763
H  H339  1  0.64619000  0.21369000  0.82875000  0.75 0.1017102763
H  H340  1  0.35381000  0.78631000  0.82875000  0.75 0.1017102763
H  H341  1  0.78631000  0.35381000  0.17125000  0.75 0.1017102763
H  H342  1  0.21369000  0.64619000  0.17125000  0.75 0.1017102763
H  H343  1  0.64619000  0.78631000  0.17125000  0.75 0.1017102763
H  H344  1  0.35381000  0.21369000  0.17125000  0.75 0.1017102763
H  H345  1  0.71369000  0.85381000  0.67125000  0.75 0.1017102763
H  H346  1  0.28631000  0.14619000  0.67125000  0.75 0.1017102763
H  H347  1  0.85381000  0.28631000  0.67125000  0.75 0.1017102763
H  H348  1  0.14619000  0.71369000  0.67125000  0.75 0.1017102763
H  H349  1  0.71369000  0.14619000  0.32875000  0.75 0.1017102763
H  H350  1  0.28631000  0.85381000  0.32875000  0.75 0.1017102763
H  H351  1  0.85381000  0.71369000  0.32875000  0.75 0.1017102763
H  H352  1  0.14619000  0.28631000  0.32875000  0.75 0.1017102763
H  H353  1  0.70389000  0.69353000  0.82303000  0.75 0.2603448034
H  H354  1  0.29611000  0.30647000  0.82303000  0.75 0.2603448034
H  H355  1  0.69353000  0.29611000  0.82303000  0.75 0.2603448034
H  H356  1  0.30647000  0.70389000  0.82303000  0.75 0.2603448034
H  H357  1  0.70389000  0.30647000  0.17697000  0.75 0.2603448034
H  H358  1  0.29611000  0.69353000  0.17697000  0.75 0.2603448034
H  H359  1  0.69353000  0.70389000  0.17697000  0.75 0.2603448034
H  H360  1  0.30647000  0.29611000  0.17697000  0.75 0.2603448034
H  H361  1  0.79611000  0.80647000  0.67697000  0.75 0.2603448034
H  H362  1  0.20389000  0.19353000  0.67697000  0.75 0.2603448034
H  H363  1  0.80647000  0.20389000  0.67697000  0.75 0.2603448034
H  H364  1  0.19353000  0.79611000  0.67697000  0.75 0.2603448034
H  H365  1  0.79611000  0.19353000  0.32303000  0.75 0.2603448034
H  H366  1  0.20389000  0.80647000  0.32303000  0.75 0.2603448034
H  H367  1  0.80647000  0.79611000  0.32303000  0.75 0.2603448034
H  H368  1  0.19353000  0.20389000  0.32303000  0.75 0.2603448034
H  H369  1  0.67531000  0.69800000  0.76184000  0.75 0.2603448034
H  H370  1  0.32469000  0.30200000  0.76184000  0.75 0.2603448034
H  H371  1  0.69800000  0.32469000  0.76184000  0.75 0.2603448034
H  H372  1  0.30200000  0.67531000  0.76184000  0.75 0.2603448034
H  H373  1  0.67531000  0.30200000  0.23816000  0.75 0.2603448034
H  H374  1  0.32469000  0.69800000  0.23816000  0.75 0.2603448034
H  H375  1  0.69800000  0.67531000  0.23816000  0.75 0.2603448034
H  H376  1  0.30200000  0.32469000  0.23816000  0.75 0.2603448034
H  H377  1  0.82469000  0.80200000  0.73816000  0.75 0.2603448034
H  H378  1  0.17531000  0.19800000  0.73816000  0.75 0.2603448034
H  H379  1  0.80200000  0.17531000  0.73816000  0.75 0.2603448034
H  H380  1  0.19800000  0.82469000  0.73816000  0.75 0.2603448034
H  H381  1  0.82469000  0.19800000  0.26184000  0.75 0.2603448034
H  H382  1  0.17531000  0.80200000  0.26184000  0.75 0.2603448034
H  H383  1  0.80200000  0.82469000  0.26184000  0.75 0.2603448034
H  H384  1  0.19800000  0.17531000  0.26184000  0.75 0.2603448034
H  H385  1  0.72851000  0.70513000  0.58212000  0.75 0.0799844335
H  H386  1  0.27149000  0.29487000  0.58212000  0.75 0.0799844335
H  H387  1  0.70513000  0.27149000  0.58212000  0.75 0.0799844335
H  H388  1  0.29487000  0.72851000  0.58212000  0.75 0.0799844335
H  H389  1  0.72851000  0.29487000  0.41788000  0.75 0.0799844335
H  H390  1  0.27149000  0.70513000  0.41788000  0.75 0.0799844335
H  H391  1  0.70513000  0.72851000  0.41788000  0.75 0.0799844335
H  H392  1  0.29487000  0.27149000  0.41788000  0.75 0.0799844335
H  H393  1  0.77149000  0.79487000  0.91788000  0.75 0.0799844335
H  H394  1  0.22851000  0.20513000  0.91788000  0.75 0.0799844335
H  H395  1  0.79487000  0.22851000  0.91788000  0.75 0.0799844335
H  H396  1  0.20513000  0.77149000  0.91788000  0.75 0.0799844335
H  H397  1  0.77149000  0.20513000  0.08212000  0.75 0.0799844335
H  H398  1  0.22851000  0.79487000  0.08212000  0.75 0.0799844335
H  H399  1  0.79487000  0.77149000  0.08212000  0.75 0.0799844335
H  H400  1  0.20513000  0.22851000  0.08212000  0.75 0.0799844335
H  H401  1  0.65785000  0.74581000  0.53613000  0.75 0.0871988177
H  H402  1  0.34215000  0.25419000  0.53613000  0.75 0.0871988177
H  H403  1  0.74581000  0.34215000  0.53613000  0.75 0.0871988177
H  H404  1  0.25419000  0.65785000  0.53613000  0.75 0.0871988177
H  H405  1  0.65785000  0.25419000  0.46387000  0.75 0.0871988177
H  H406  1  0.34215000  0.74581000  0.46387000  0.75 0.0871988177
H  H407  1  0.74581000  0.65785000  0.46387000  0.75 0.0871988177
H  H408  1  0.25419000  0.34215000  0.46387000  0.75 0.0871988177
H  H409  1  0.84215000  0.75419000  0.96387000  0.75 0.0871988177
H  H410  1  0.15785000  0.24581000  0.96387000  0.75 0.0871988177
H  H411  1  0.75419000  0.15785000  0.96387000  0.75 0.0871988177
H  H412  1  0.24581000  0.84215000  0.96387000  0.75 0.0871988177
H  H413  1  0.84215000  0.24581000  0.03613000  0.75 0.0871988177
H  H414  1  0.15785000  0.75419000  0.03613000  0.75 0.0871988177
H  H415  1  0.75419000  0.84215000  0.03613000  0.75 0.0871988177
H  H416  1  0.24581000  0.15785000  0.03613000  0.75 0.0871988177
H  H417  1  0.56498000  0.68415000  0.66913000  0.75 0.1198618425
H  H418  1  0.43502000  0.31585000  0.66913000  0.75 0.1198618425
H  H419  1  0.68415000  0.43502000  0.66913000  0.75 0.1198618425
H  H420  1  0.31585000  0.56498000  0.66913000  0.75 0.1198618425
H  H421  1  0.56498000  0.31585000  0.33087000  0.75 0.1198618425
H  H422  1  0.43502000  0.68415000  0.33087000  0.75 0.1198618425
H  H423  1  0.68415000  0.56498000  0.33087000  0.75 0.1198618425
H  H424  1  0.31585000  0.43502000  0.33087000  0.75 0.1198618425
H  H425  1  0.93502000  0.81585000  0.83087000  0.75 0.1198618425
H  H426  1  0.06498000  0.18415000  0.83087000  0.75 0.1198618425
H  H427  1  0.81585000  0.06498000  0.83087000  0.75 0.1198618425
H  H428  1  0.18415000  0.93502000  0.83087000  0.75 0.1198618425
H  H429  1  0.93502000  0.18415000  0.16913000  0.75 0.1198618425
H  H430  1  0.06498000  0.81585000  0.16913000  0.75 0.1198618425
H  H431  1  0.81585000  0.93502000  0.16913000  0.75 0.1198618425
H  H432  1  0.18415000  0.06498000  0.16913000  0.75 0.1198618425
H  H433  1  0.66152000  0.62705000  0.75969000  0.75 0.2809000731
H  H434  1  0.33848000  0.37295000  0.75969000  0.75 0.2809000731
H  H435  1  0.62705000  0.33848000  0.75969000  0.75 0.2809000731
H  H436  1  0.37295000  0.66152000  0.75969000  0.75 0.2809000731
H  H437  1  0.66152000  0.37295000  0.24031000  0.75 0.2809000731
H  H438  1  0.33848000  0.62705000  0.24031000  0.75 0.2809000731
H  H439  1  0.62705000  0.66152000  0.24031000  0.75 0.2809000731
H  H440  1  0.37295000  0.33848000  0.24031000  0.75 0.2809000731
H  H441  1  0.83848000  0.87295000  0.74031000  0.75 0.2809000731
H  H442  1  0.16152000  0.12705000  0.74031000  0.75 0.2809000731
H  H443  1  0.87295000  0.16152000  0.74031000  0.75 0.2809000731
H  H444  1  0.12705000  0.83848000  0.74031000  0.75 0.2809000731
H  H445  1  0.83848000  0.12705000  0.25969000  0.75 0.2809000731
H  H446  1  0.16152000  0.87295000  0.25969000  0.75 0.2809000731
H  H447  1  0.87295000  0.83848000  0.25969000  0.75 0.2809000731
H  H448  1  0.12705000  0.16152000  0.25969000  0.75 0.2809000731
H  H449  1  0.60443000  0.63423000  0.75649000  0.75 0.3095990977
H  H450  1  0.39557000  0.36577000  0.75649000  0.75 0.3095990977
H  H451  1  0.63423000  0.39557000  0.75649000  0.75 0.3095990977
H  H452  1  0.36577000  0.60443000  0.75649000  0.75 0.3095990977
H  H453  1  0.60443000  0.36577000  0.24351000  0.75 0.3095990977
H  H454  1  0.39557000  0.63423000  0.24351000  0.75 0.3095990977
H  H455  1  0.63423000  0.60443000  0.24351000  0.75 0.3095990977
H  H456  1  0.36577000  0.39557000  0.24351000  0.75 0.3095990977
H  H457  1  0.89557000  0.86577000  0.74351000  0.75 0.3095990977
H  H458  1  0.10443000  0.13423000  0.74351000  0.75 0.3095990977
H  H459  1  0.86577000  0.10443000  0.74351000  0.75 0.3095990977
H  H460  1  0.13423000  0.89557000  0.74351000  0.75 0.3095990977
H  H461  1  0.89557000  0.13423000  0.25649000  0.75 0.3095990977
H  H462  1  0.10443000  0.86577000  0.25649000  0.75 0.3095990977
H  H463  1  0.86577000  0.89557000  0.25649000  0.75 0.3095990977
H  H464  1  0.13423000  0.10443000  0.25649000  0.75 0.3095990977
C  C1  1  0.04382000  0.56595000  0.88650000  1.0 0.2489520829
C  C2  1  0.95618000  0.43405000  0.88650000  1.0 0.2489520829
C  C3  1  0.56595000  0.95618000  0.88650000  1.0 0.2489520829
C  C4  1  0.43405000  0.04382000  0.88650000  1.0 0.2489520829
C  C5  1  0.04382000  0.43405000  0.11350000  1.0 0.2489520829
C  C6  1  0.95618000  0.56595000  0.11350000  1.0 0.2489520829
C  C7  1  0.56595000  0.04382000  0.11350000  1.0 0.2489520829
C  C8  1  0.43405000  0.95618000  0.11350000  1.0 0.2489520829
C  C9  1  0.45618000  0.93405000  0.61350000  1.0 0.2489520829
C  C10  1  0.54382000  0.06595000  0.61350000  1.0 0.2489520829
C  C11  1  0.93405000  0.54382000  0.61350000  1.0 0.2489520829
C  C12  1  0.06595000  0.45618000  0.61350000  1.0 0.2489520829
C  C13  1  0.45618000  0.06595000  0.38650000  1.0 0.2489520829
C  C14  1  0.54382000  0.93405000  0.38650000  1.0 0.2489520829
C  C15  1  0.93405000  0.45618000  0.38650000  1.0 0.2489520829
C  C16  1  0.06595000  0.54382000  0.38650000  1.0 0.2489520829
C  C17  1  0.05909000  0.60368000  0.92790000  1.0 -0.0298494211
C  C18  1  0.94091000  0.39632000  0.92790000  1.0 -0.0298494211
C  C19  1  0.60368000  0.94091000  0.92790000  1.0 -0.0298494211
C  C20  1  0.39632000  0.05909000  0.92790000  1.0 -0.0298494211
C  C21  1  0.05909000  0.39632000  0.07210000  1.0 -0.0298494211
C  C22  1  0.94091000  0.60368000  0.07210000  1.0 -0.0298494211
C  C23  1  0.60368000  0.05909000  0.07210000  1.0 -0.0298494211
C  C24  1  0.39632000  0.94091000  0.07210000  1.0 -0.0298494211
C  C25  1  0.44091000  0.89632000  0.57210000  1.0 -0.0298494211
C  C26  1  0.55909000  0.10368000  0.57210000  1.0 -0.0298494211
C  C27  1  0.89632000  0.55909000  0.57210000  1.0 -0.0298494211
C  C28  1  0.10368000  0.44091000  0.57210000  1.0 -0.0298494211
C  C29  1  0.44091000  0.10368000  0.42790000  1.0 -0.0298494211
C  C30  1  0.55909000  0.89632000  0.42790000  1.0 -0.0298494211
C  C31  1  0.89632000  0.44091000  0.42790000  1.0 -0.0298494211
C  C32  1  0.10368000  0.55909000  0.42790000  1.0 -0.0298494211
C  C33  1  0.10894000  0.60050000  0.95480000  1.0 0.1090574279
C  C34  1  0.89106000  0.39950000  0.95480000  1.0 0.1090574279
C  C35  1  0.60050000  0.89106000  0.95480000  1.0 0.1090574279
C  C36  1  0.39950000  0.10894000  0.95480000  1.0 0.1090574279
C  C37  1  0.10894000  0.39950000  0.04520000  1.0 0.1090574279
C  C38  1  0.89106000  0.60050000  0.04520000  1.0 0.1090574279
C  C39  1  0.60050000  0.10894000  0.04520000  1.0 0.1090574279
C  C40  1  0.39950000  0.89106000  0.04520000  1.0 0.1090574279
C  C41  1  0.39106000  0.89950000  0.54520000  1.0 0.1090574279
C  C42  1  0.60894000  0.10050000  0.54520000  1.0 0.1090574279
C  C43  1  0.89950000  0.60894000  0.54520000  1.0 0.1090574279
C  C44  1  0.10050000  0.39106000  0.54520000  1.0 0.1090574279
C  C45  1  0.39106000  0.10050000  0.45480000  1.0 0.1090574279
C  C46  1  0.60894000  0.89950000  0.45480000  1.0 0.1090574279
C  C47  1  0.89950000  0.39106000  0.45480000  1.0 0.1090574279
C  C48  1  0.10050000  0.60894000  0.45480000  1.0 0.1090574279
C  C49  1  0.98369000  0.62201000  0.89302000  1.0 0.0871988177
C  C50  1  0.01631000  0.37799000  0.89302000  1.0 0.0871988177
C  C51  1  0.62201000  0.01631000  0.89302000  1.0 0.0871988177
C  C52  1  0.37799000  0.98369000  0.89302000  1.0 0.0871988177
C  C53  1  0.98369000  0.37799000  0.10698000  1.0 0.0871988177
C  C54  1  0.01631000  0.62201000  0.10698000  1.0 0.0871988177
C  C55  1  0.62201000  0.98369000  0.10698000  1.0 0.0871988177
C  C56  1  0.37799000  0.01631000  0.10698000  1.0 0.0871988177
C  C57  1  0.51631000  0.87799000  0.60698000  1.0 0.0871988177
C  C58  1  0.48369000  0.12201000  0.60698000  1.0 0.0871988177
C  C59  1  0.87799000  0.48369000  0.60698000  1.0 0.0871988177
C  C60  1  0.12201000  0.51631000  0.60698000  1.0 0.0871988177
C  C61  1  0.51631000  0.12201000  0.39302000  1.0 0.0871988177
C  C62  1  0.48369000  0.87799000  0.39302000  1.0 0.0871988177
C  C63  1  0.87799000  0.51631000  0.39302000  1.0 0.0871988177
C  C64  1  0.12201000  0.48369000  0.39302000  1.0 0.0871988177
C  C65  1  0.11868000  0.52380000  0.89990000  1.0 0.1678873631
C  C66  1  0.88132000  0.47620000  0.89990000  1.0 0.1678873631
C  C67  1  0.52380000  0.88132000  0.89990000  1.0 0.1678873631
C  C68  1  0.47620000  0.11868000  0.89990000  1.0 0.1678873631
C  C69  1  0.11868000  0.47620000  0.10010000  1.0 0.1678873631
C  C70  1  0.88132000  0.52380000  0.10010000  1.0 0.1678873631
C  C71  1  0.52380000  0.11868000  0.10010000  1.0 0.1678873631
C  C72  1  0.47620000  0.88132000  0.10010000  1.0 0.1678873631
C  C73  1  0.38132000  0.97620000  0.60010000  1.0 0.1678873631
C  C74  1  0.61868000  0.02380000  0.60010000  1.0 0.1678873631
C  C75  1  0.97620000  0.61868000  0.60010000  1.0 0.1678873631
C  C76  1  0.02380000  0.38132000  0.60010000  1.0 0.1678873631
C  C77  1  0.38132000  0.02380000  0.39990000  1.0 0.1678873631
C  C78  1  0.61868000  0.97620000  0.39990000  1.0 0.1678873631
C  C79  1  0.97620000  0.38132000  0.39990000  1.0 0.1678873631
C  C80  1  0.02380000  0.61868000  0.39990000  1.0 0.1678873631
C  C81  1  0.70170000  0.67010000  0.62710000  0.25 0.0289873009
C  C82  1  0.29830000  0.32990000  0.62710000  0.25 0.0289873009
C  C83  1  0.67010000  0.29830000  0.62710000  0.25 0.0289873009
C  C84  1  0.32990000  0.70170000  0.62710000  0.25 0.0289873009
C  C85  1  0.70170000  0.32990000  0.37290000  0.25 0.0289873009
C  C86  1  0.29830000  0.67010000  0.37290000  0.25 0.0289873009
C  C87  1  0.67010000  0.70170000  0.37290000  0.25 0.0289873009
C  C88  1  0.32990000  0.29830000  0.37290000  0.25 0.0289873009
C  C89  1  0.79830000  0.82990000  0.87290000  0.25 0.0289873009
C  C90  1  0.20170000  0.17010000  0.87290000  0.25 0.0289873009
C  C91  1  0.82990000  0.20170000  0.87290000  0.25 0.0289873009
C  C92  1  0.17010000  0.79830000  0.87290000  0.25 0.0289873009
C  C93  1  0.79830000  0.17010000  0.12710000  0.25 0.0289873009
C  C94  1  0.20170000  0.82990000  0.12710000  0.25 0.0289873009
C  C95  1  0.82990000  0.79830000  0.12710000  0.25 0.0289873009
C  C96  1  0.17010000  0.20170000  0.12710000  0.25 0.0289873009
C  C97  1  0.68510000  0.72050000  0.63730000  0.25 0.0871988177
C  C98  1  0.31490000  0.27950000  0.63730000  0.25 0.0871988177
C  C99  1  0.72050000  0.31490000  0.63730000  0.25 0.0871988177
C  C100  1  0.27950000  0.68510000  0.63730000  0.25 0.0871988177
C  C101  1  0.68510000  0.27950000  0.36270000  0.25 0.0871988177
C  C102  1  0.31490000  0.72050000  0.36270000  0.25 0.0871988177
C  C103  1  0.72050000  0.68510000  0.36270000  0.25 0.0871988177
C  C104  1  0.27950000  0.31490000  0.36270000  0.25 0.0871988177
C  C105  1  0.81490000  0.77950000  0.86270000  0.25 0.0871988177
C  C106  1  0.18510000  0.22050000  0.86270000  0.25 0.0871988177
C  C107  1  0.77950000  0.18510000  0.86270000  0.25 0.0871988177
C  C108  1  0.22050000  0.81490000  0.86270000  0.25 0.0871988177
C  C109  1  0.81490000  0.22050000  0.13730000  0.25 0.0871988177
C  C110  1  0.18510000  0.77950000  0.13730000  0.25 0.0871988177
C  C111  1  0.77950000  0.81490000  0.13730000  0.25 0.0871988177
C  C112  1  0.22050000  0.18510000  0.13730000  0.25 0.0871988177
C  C113  1  0.64340000  0.73990000  0.60320000  0.25 -0.0516524759
C  C114  1  0.35660000  0.26010000  0.60320000  0.25 -0.0516524759
C  C115  1  0.73990000  0.35660000  0.60320000  0.25 -0.0516524759
C  C116  1  0.26010000  0.64340000  0.60320000  0.25 -0.0516524759
C  C117  1  0.64340000  0.26010000  0.39680000  0.25 -0.0516524759
C  C118  1  0.35660000  0.73990000  0.39680000  0.25 -0.0516524759
C  C119  1  0.73990000  0.64340000  0.39680000  0.25 -0.0516524759
C  C120  1  0.26010000  0.35660000  0.39680000  0.25 -0.0516524759
C  C121  1  0.85660000  0.76010000  0.89680000  0.25 -0.0516524759
C  C122  1  0.14340000  0.23990000  0.89680000  0.25 -0.0516524759
C  C123  1  0.76010000  0.14340000  0.89680000  0.25 -0.0516524759
C  C124  1  0.23990000  0.85660000  0.89680000  0.25 -0.0516524759
C  C125  1  0.85660000  0.23990000  0.10320000  0.25 -0.0516524759
C  C126  1  0.14340000  0.76010000  0.10320000  0.25 -0.0516524759
C  C127  1  0.76010000  0.85660000  0.10320000  0.25 -0.0516524759
C  C128  1  0.23990000  0.14340000  0.10320000  0.25 -0.0516524759
C  C129  1  0.61830000  0.70900000  0.55880000  0.25 -0.0095030631
C  C130  1  0.38170000  0.29100000  0.55880000  0.25 -0.0095030631
C  C131  1  0.70900000  0.38170000  0.55880000  0.25 -0.0095030631
C  C132  1  0.29100000  0.61830000  0.55880000  0.25 -0.0095030631
C  C133  1  0.61830000  0.29100000  0.44120000  0.25 -0.0095030631
C  C134  1  0.38170000  0.70900000  0.44120000  0.25 -0.0095030631
C  C135  1  0.70900000  0.61830000  0.44120000  0.25 -0.0095030631
C  C136  1  0.29100000  0.38170000  0.44120000  0.25 -0.0095030631
C  C137  1  0.88170000  0.79100000  0.94120000  0.25 -0.0095030631
C  C138  1  0.11830000  0.20900000  0.94120000  0.25 -0.0095030631
C  C139  1  0.79100000  0.11830000  0.94120000  0.25 -0.0095030631
C  C140  1  0.20900000  0.88170000  0.94120000  0.25 -0.0095030631
C  C141  1  0.88170000  0.20900000  0.05880000  0.25 -0.0095030631
C  C142  1  0.11830000  0.79100000  0.05880000  0.25 -0.0095030631
C  C143  1  0.79100000  0.88170000  0.05880000  0.25 -0.0095030631
C  C144  1  0.20900000  0.11830000  0.05880000  0.25 -0.0095030631
C  C145  1  0.63500000  0.65860000  0.54860000  0.25 -0.1321534742
C  C146  1  0.36500000  0.34140000  0.54860000  0.25 -0.1321534742
C  C147  1  0.65860000  0.36500000  0.54860000  0.25 -0.1321534742
C  C148  1  0.34140000  0.63500000  0.54860000  0.25 -0.1321534742
C  C149  1  0.63500000  0.34140000  0.45140000  0.25 -0.1321534742
C  C150  1  0.36500000  0.65860000  0.45140000  0.25 -0.1321534742
C  C151  1  0.65860000  0.63500000  0.45140000  0.25 -0.1321534742
C  C152  1  0.34140000  0.36500000  0.45140000  0.25 -0.1321534742
C  C153  1  0.86500000  0.84140000  0.95140000  0.25 -0.1321534742
C  C154  1  0.13500000  0.15860000  0.95140000  0.25 -0.1321534742
C  C155  1  0.84140000  0.13500000  0.95140000  0.25 -0.1321534742
C  C156  1  0.15860000  0.86500000  0.95140000  0.25 -0.1321534742
C  C157  1  0.86500000  0.15860000  0.04860000  0.25 -0.1321534742
C  C158  1  0.13500000  0.84140000  0.04860000  0.25 -0.1321534742
C  C159  1  0.84140000  0.86500000  0.04860000  0.25 -0.1321534742
C  C160  1  0.15860000  0.13500000  0.04860000  0.25 -0.1321534742
C  C161  1  0.67670000  0.63910000  0.58270000  0.25 -0.122219291
C  C162  1  0.32330000  0.36090000  0.58270000  0.25 -0.122219291
C  C163  1  0.63910000  0.32330000  0.58270000  0.25 -0.122219291
C  C164  1  0.36090000  0.67670000  0.58270000  0.25 -0.122219291
C  C165  1  0.67670000  0.36090000  0.41730000  0.25 -0.122219291
C  C166  1  0.32330000  0.63910000  0.41730000  0.25 -0.122219291
C  C167  1  0.63910000  0.67670000  0.41730000  0.25 -0.122219291
C  C168  1  0.36090000  0.32330000  0.41730000  0.25 -0.122219291
C  C169  1  0.82330000  0.86090000  0.91730000  0.25 -0.122219291
C  C170  1  0.17670000  0.13910000  0.91730000  0.25 -0.122219291
C  C171  1  0.86090000  0.17670000  0.91730000  0.25 -0.122219291
C  C172  1  0.13910000  0.82330000  0.91730000  0.25 -0.122219291
C  C173  1  0.82330000  0.13910000  0.08270000  0.25 -0.122219291
C  C174  1  0.17670000  0.86090000  0.08270000  0.25 -0.122219291
C  C175  1  0.86090000  0.82330000  0.08270000  0.25 -0.122219291
C  C176  1  0.13910000  0.17670000  0.08270000  0.25 -0.122219291
C  C177  1  0.79560000  0.68070000  0.65770000  0.25 0.0536577564
C  C178  1  0.20440000  0.31930000  0.65770000  0.25 0.0536577564
C  C179  1  0.68070000  0.20440000  0.65770000  0.25 0.0536577564
C  C180  1  0.31930000  0.79560000  0.65770000  0.25 0.0536577564
C  C181  1  0.79560000  0.31930000  0.34230000  0.25 0.0536577564
C  C182  1  0.20440000  0.68070000  0.34230000  0.25 0.0536577564
C  C183  1  0.68070000  0.79560000  0.34230000  0.25 0.0536577564
C  C184  1  0.31930000  0.20440000  0.34230000  0.25 0.0536577564
C  C185  1  0.70440000  0.81930000  0.84230000  0.25 0.0536577564
C  C186  1  0.29560000  0.18070000  0.84230000  0.25 0.0536577564
C  C187  1  0.81930000  0.29560000  0.84230000  0.25 0.0536577564
C  C188  1  0.18070000  0.70440000  0.84230000  0.25 0.0536577564
C  C189  1  0.70440000  0.18070000  0.15770000  0.25 0.0536577564
C  C190  1  0.29560000  0.81930000  0.15770000  0.25 0.0536577564
C  C191  1  0.81930000  0.70440000  0.15770000  0.25 0.0536577564
C  C192  1  0.18070000  0.29560000  0.15770000  0.25 0.0536577564
C  C193  1  0.75140000  0.65080000  0.65910000  0.25 0.0150779183
C  C194  1  0.24860000  0.34920000  0.65910000  0.25 0.0150779183
C  C195  1  0.65080000  0.24860000  0.65910000  0.25 0.0150779183
C  C196  1  0.34920000  0.75140000  0.65910000  0.25 0.0150779183
C  C197  1  0.75140000  0.34920000  0.34090000  0.25 0.0150779183
C  C198  1  0.24860000  0.65080000  0.34090000  0.25 0.0150779183
C  C199  1  0.65080000  0.75140000  0.34090000  0.25 0.0150779183
C  C200  1  0.34920000  0.24860000  0.34090000  0.25 0.0150779183
C  C201  1  0.74860000  0.84920000  0.84090000  0.25 0.0150779183
C  C202  1  0.25140000  0.15080000  0.84090000  0.25 0.0150779183
C  C203  1  0.84920000  0.25140000  0.84090000  0.25 0.0150779183
C  C204  1  0.15080000  0.74860000  0.84090000  0.25 0.0150779183
C  C205  1  0.74860000  0.15080000  0.15910000  0.25 0.0150779183
C  C206  1  0.25140000  0.84920000  0.15910000  0.25 0.0150779183
C  C207  1  0.84920000  0.74860000  0.15910000  0.25 0.0150779183
C  C208  1  0.15080000  0.25140000  0.15910000  0.25 0.0150779183
C  C209  1  0.74970000  0.60340000  0.68860000  0.25 -0.0592288789
C  C210  1  0.25030000  0.39660000  0.68860000  0.25 -0.0592288789
C  C211  1  0.60340000  0.25030000  0.68860000  0.25 -0.0592288789
C  C212  1  0.39660000  0.74970000  0.68860000  0.25 -0.0592288789
C  C213  1  0.74970000  0.39660000  0.31140000  0.25 -0.0592288789
C  C214  1  0.25030000  0.60340000  0.31140000  0.25 -0.0592288789
C  C215  1  0.60340000  0.74970000  0.31140000  0.25 -0.0592288789
C  C216  1  0.39660000  0.25030000  0.31140000  0.25 -0.0592288789
C  C217  1  0.75030000  0.89660000  0.81140000  0.25 -0.0592288789
C  C218  1  0.24970000  0.10340000  0.81140000  0.25 -0.0592288789
C  C219  1  0.89660000  0.24970000  0.81140000  0.25 -0.0592288789
C  C220  1  0.10340000  0.75030000  0.81140000  0.25 -0.0592288789
C  C221  1  0.75030000  0.10340000  0.18860000  0.25 -0.0592288789
C  C222  1  0.24970000  0.89660000  0.18860000  0.25 -0.0592288789
C  C223  1  0.89660000  0.75030000  0.18860000  0.25 -0.0592288789
C  C224  1  0.10340000  0.24970000  0.18860000  0.25 -0.0592288789
C  C225  1  0.79410000  0.58570000  0.71760000  0.25 -0.0752859418
C  C226  1  0.20590000  0.41430000  0.71760000  0.25 -0.0752859418
C  C227  1  0.58570000  0.20590000  0.71760000  0.25 -0.0752859418
C  C228  1  0.41430000  0.79410000  0.71760000  0.25 -0.0752859418
C  C229  1  0.79410000  0.41430000  0.28240000  0.25 -0.0752859418
C  C230  1  0.20590000  0.58570000  0.28240000  0.25 -0.0752859418
C  C231  1  0.58570000  0.79410000  0.28240000  0.25 -0.0752859418
C  C232  1  0.41430000  0.20590000  0.28240000  0.25 -0.0752859418
C  C233  1  0.70590000  0.91430000  0.78240000  0.25 -0.0752859418
C  C234  1  0.29410000  0.08570000  0.78240000  0.25 -0.0752859418
C  C235  1  0.91430000  0.29410000  0.78240000  0.25 -0.0752859418
C  C236  1  0.08570000  0.70590000  0.78240000  0.25 -0.0752859418
C  C237  1  0.70590000  0.08570000  0.21760000  0.25 -0.0752859418
C  C238  1  0.29410000  0.91430000  0.21760000  0.25 -0.0752859418
C  C239  1  0.91430000  0.70590000  0.21760000  0.25 -0.0752859418
C  C240  1  0.08570000  0.29410000  0.21760000  0.25 -0.0752859418
C  C241  1  0.83830000  0.61500000  0.71660000  0.25 -0.0183447764
C  C242  1  0.16170000  0.38500000  0.71660000  0.25 -0.0183447764
C  C243  1  0.61500000  0.16170000  0.71660000  0.25 -0.0183447764
C  C244  1  0.38500000  0.83830000  0.71660000  0.25 -0.0183447764
C  C245  1  0.83830000  0.38500000  0.28340000  0.25 -0.0183447764
C  C246  1  0.16170000  0.61500000  0.28340000  0.25 -0.0183447764
C  C247  1  0.61500000  0.83830000  0.28340000  0.25 -0.0183447764
C  C248  1  0.38500000  0.16170000  0.28340000  0.25 -0.0183447764
C  C249  1  0.66170000  0.88500000  0.78340000  0.25 -0.0183447764
C  C250  1  0.33830000  0.11500000  0.78340000  0.25 -0.0183447764
C  C251  1  0.88500000  0.33830000  0.78340000  0.25 -0.0183447764
C  C252  1  0.11500000  0.66170000  0.78340000  0.25 -0.0183447764
C  C253  1  0.66170000  0.11500000  0.21660000  0.25 -0.0183447764
C  C254  1  0.33830000  0.88500000  0.21660000  0.25 -0.0183447764
C  C255  1  0.88500000  0.66170000  0.21660000  0.25 -0.0183447764
C  C256  1  0.11500000  0.33830000  0.21660000  0.25 -0.0183447764
C  C257  1  0.83950000  0.66230000  0.68670000  0.25 -0.2157386769
C  C258  1  0.16050000  0.33770000  0.68670000  0.25 -0.2157386769
C  C259  1  0.66230000  0.16050000  0.68670000  0.25 -0.2157386769
C  C260  1  0.33770000  0.83950000  0.68670000  0.25 -0.2157386769
C  C261  1  0.83950000  0.33770000  0.31330000  0.25 -0.2157386769
C  C262  1  0.16050000  0.66230000  0.31330000  0.25 -0.2157386769
C  C263  1  0.66230000  0.83950000  0.31330000  0.25 -0.2157386769
C  C264  1  0.33770000  0.16050000  0.31330000  0.25 -0.2157386769
C  C265  1  0.66050000  0.83770000  0.81330000  0.25 -0.2157386769
C  C266  1  0.33950000  0.16230000  0.81330000  0.25 -0.2157386769
C  C267  1  0.83770000  0.33950000  0.81330000  0.25 -0.2157386769
C  C268  1  0.16230000  0.66050000  0.81330000  0.25 -0.2157386769
C  C269  1  0.66050000  0.16230000  0.18670000  0.25 -0.2157386769
C  C270  1  0.33950000  0.83770000  0.18670000  0.25 -0.2157386769
C  C271  1  0.83770000  0.66050000  0.18670000  0.25 -0.2157386769
C  C272  1  0.16230000  0.33950000  0.18670000  0.25 -0.2157386769
C  C273  1  0.57560000  0.73020000  0.51920000  0.34 0.2851002007
C  C274  1  0.42440000  0.26980000  0.51920000  0.34 0.2851002007
C  C275  1  0.73020000  0.42440000  0.51920000  0.34 0.2851002007
C  C276  1  0.26980000  0.57560000  0.51920000  0.34 0.2851002007
C  C277  1  0.57560000  0.26980000  0.48080000  0.34 0.2851002007
C  C278  1  0.42440000  0.73020000  0.48080000  0.34 0.2851002007
C  C279  1  0.73020000  0.57560000  0.48080000  0.34 0.2851002007
C  C280  1  0.26980000  0.42440000  0.48080000  0.34 0.2851002007
C  C281  1  0.92440000  0.76980000  0.98080000  0.34 0.2851002007
C  C282  1  0.07560000  0.23020000  0.98080000  0.34 0.2851002007
C  C283  1  0.76980000  0.07560000  0.98080000  0.34 0.2851002007
C  C284  1  0.23020000  0.92440000  0.98080000  0.34 0.2851002007
C  C285  1  0.92440000  0.23020000  0.01920000  0.34 0.2851002007
C  C286  1  0.07560000  0.76980000  0.01920000  0.34 0.2851002007
C  C287  1  0.76980000  0.92440000  0.01920000  0.34 0.2851002007
C  C288  1  0.23020000  0.07560000  0.01920000  0.34 0.2851002007
C  C289  1  0.88660000  0.59530000  0.75000000  0.36 0.2731496166
C  C290  1  0.11340000  0.40470000  0.75000000  0.36 0.2731496166
C  C291  1  0.59530000  0.11340000  0.75000000  0.36 0.2731496166
C  C292  1  0.40470000  0.88660000  0.75000000  0.36 0.2731496166
C  C293  1  0.88660000  0.40470000  0.25000000  0.36 0.2731496166
C  C294  1  0.11340000  0.59530000  0.25000000  0.36 0.2731496166
C  C295  1  0.59530000  0.88660000  0.25000000  0.36 0.2731496166
C  C296  1  0.40470000  0.11340000  0.25000000  0.36 0.2731496166
C  C297  1  0.61340000  0.90470000  0.75000000  0.36 0.2731496166
C  C298  1  0.38660000  0.09530000  0.75000000  0.36 0.2731496166
C  C299  1  0.90470000  0.38660000  0.75000000  0.36 0.2731496166
C  C300  1  0.09530000  0.61340000  0.75000000  0.36 0.2731496166
C  C301  1  0.61340000  0.09530000  0.25000000  0.36 0.2731496166
C  C302  1  0.38660000  0.90470000  0.25000000  0.36 0.2731496166
C  C303  1  0.90470000  0.61340000  0.25000000  0.36 0.2731496166
C  C304  1  0.09530000  0.38660000  0.25000000  0.36 0.2731496166
C  C305  1  0.17780000  0.62820000  0.02630000  0.5 0.1090574279
C  C306  1  0.82220000  0.37180000  0.02630000  0.5 0.1090574279
C  C307  1  0.62820000  0.82220000  0.02630000  0.5 0.1090574279
C  C308  1  0.37180000  0.17780000  0.02630000  0.5 0.1090574279
C  C309  1  0.17780000  0.37180000  0.97370000  0.5 0.1090574279
C  C310  1  0.82220000  0.62820000  0.97370000  0.5 0.1090574279
C  C311  1  0.62820000  0.17780000  0.97370000  0.5 0.1090574279
C  C312  1  0.37180000  0.82220000  0.97370000  0.5 0.1090574279
C  C313  1  0.32220000  0.87180000  0.47370000  0.5 0.1090574279
C  C314  1  0.67780000  0.12820000  0.47370000  0.5 0.1090574279
C  C315  1  0.87180000  0.67780000  0.47370000  0.5 0.1090574279
C  C316  1  0.12820000  0.32220000  0.47370000  0.5 0.1090574279
C  C317  1  0.32220000  0.12820000  0.52630000  0.5 0.1090574279
C  C318  1  0.67780000  0.87180000  0.52630000  0.5 0.1090574279
C  C319  1  0.87180000  0.32220000  0.52630000  0.5 0.1090574279
C  C320  1  0.12820000  0.67780000  0.52630000  0.5 0.1090574279
C  C321  1  0.18240000  0.63880000  0.01260000  0.5 0.1090574279
C  C322  1  0.81760000  0.36120000  0.01260000  0.5 0.1090574279
C  C323  1  0.63880000  0.81760000  0.01260000  0.5 0.1090574279
C  C324  1  0.36120000  0.18240000  0.01260000  0.5 0.1090574279
C  C325  1  0.18240000  0.36120000  0.98740000  0.5 0.1090574279
C  C326  1  0.81760000  0.63880000  0.98740000  0.5 0.1090574279
C  C327  1  0.63880000  0.18240000  0.98740000  0.5 0.1090574279
C  C328  1  0.36120000  0.81760000  0.98740000  0.5 0.1090574279
C  C329  1  0.31760000  0.86120000  0.48740000  0.5 0.1090574279
C  C330  1  0.68240000  0.13880000  0.48740000  0.5 0.1090574279
C  C331  1  0.86120000  0.68240000  0.48740000  0.5 0.1090574279
C  C332  1  0.13880000  0.31760000  0.48740000  0.5 0.1090574279
C  C333  1  0.31760000  0.13880000  0.51260000  0.5 0.1090574279
C  C334  1  0.68240000  0.86120000  0.51260000  0.5 0.1090574279
C  C335  1  0.86120000  0.31760000  0.51260000  0.5 0.1090574279
C  C336  1  0.13880000  0.68240000  0.51260000  0.5 0.1090574279
C  C337  1  0.86540000  0.58920000  0.78980000  0.64 0.2809000731
C  C338  1  0.13460000  0.41080000  0.78980000  0.64 0.2809000731
C  C339  1  0.58920000  0.13460000  0.78980000  0.64 0.2809000731
C  C340  1  0.41080000  0.86540000  0.78980000  0.64 0.2809000731
C  C341  1  0.86540000  0.41080000  0.21020000  0.64 0.2809000731
C  C342  1  0.13460000  0.58920000  0.21020000  0.64 0.2809000731
C  C343  1  0.58920000  0.86540000  0.21020000  0.64 0.2809000731
C  C344  1  0.41080000  0.13460000  0.21020000  0.64 0.2809000731
C  C345  1  0.63460000  0.91080000  0.71020000  0.64 0.2809000731
C  C346  1  0.36540000  0.08920000  0.71020000  0.64 0.2809000731
C  C347  1  0.91080000  0.36540000  0.71020000  0.64 0.2809000731
C  C348  1  0.08920000  0.63460000  0.71020000  0.64 0.2809000731
C  C349  1  0.63460000  0.08920000  0.28980000  0.64 0.2809000731
C  C350  1  0.36540000  0.91080000  0.28980000  0.64 0.2809000731
C  C351  1  0.91080000  0.63460000  0.28980000  0.64 0.2809000731
C  C352  1  0.08920000  0.36540000  0.28980000  0.64 0.2809000731
C  C353  1  0.55870000  0.74440000  0.56750000  0.67 0.2809000731
C  C354  1  0.44130000  0.25560000  0.56750000  0.67 0.2809000731
C  C355  1  0.74440000  0.44130000  0.56750000  0.67 0.2809000731
C  C356  1  0.25560000  0.55870000  0.56750000  0.67 0.2809000731
C  C357  1  0.55870000  0.25560000  0.43250000  0.67 0.2809000731
C  C358  1  0.44130000  0.74440000  0.43250000  0.67 0.2809000731
C  C359  1  0.74440000  0.55870000  0.43250000  0.67 0.2809000731
C  C360  1  0.25560000  0.44130000  0.43250000  0.67 0.2809000731
C  C361  1  0.94130000  0.75560000  0.93250000  0.67 0.2809000731
C  C362  1  0.05870000  0.24440000  0.93250000  0.67 0.2809000731
C  C363  1  0.75560000  0.05870000  0.93250000  0.67 0.2809000731
C  C364  1  0.24440000  0.94130000  0.93250000  0.67 0.2809000731
C  C365  1  0.94130000  0.24440000  0.06750000  0.67 0.2809000731
C  C366  1  0.05870000  0.75560000  0.06750000  0.67 0.2809000731
C  C367  1  0.75560000  0.94130000  0.06750000  0.67 0.2809000731
C  C368  1  0.24440000  0.05870000  0.06750000  0.67 0.2809000731
C  C369  1  0.81370000  0.59920000  0.68980000  0.75 -0.0183447764
C  C370  1  0.18630000  0.40080000  0.68980000  0.75 -0.0298494211
C  C371  1  0.59920000  0.18630000  0.68980000  0.75 -0.0298494211
C  C372  1  0.40080000  0.81370000  0.68980000  0.75 -0.0298494211
C  C373  1  0.81370000  0.40080000  0.31020000  0.75 -0.0183447764
C  C374  1  0.18630000  0.59920000  0.31020000  0.75 -0.0298494211
C  C375  1  0.59920000  0.81370000  0.31020000  0.75 -0.0183447764
C  C376  1  0.40080000  0.18630000  0.31020000  0.75 -0.0298494211
C  C377  1  0.68630000  0.90080000  0.81020000  0.75 -0.0183447764
C  C378  1  0.31370000  0.09920000  0.81020000  0.75 -0.0298494211
C  C379  1  0.90080000  0.31370000  0.81020000  0.75 -0.0183447764
C  C380  1  0.09920000  0.68630000  0.81020000  0.75 -0.0298494211
C  C381  1  0.68630000  0.09920000  0.18980000  0.75 -0.0183447764
C  C382  1  0.31370000  0.90080000  0.18980000  0.75 -0.0298494211
C  C383  1  0.90080000  0.68630000  0.18980000  0.75 -0.0183447764
C  C384  1  0.09920000  0.31370000  0.18980000  0.75 -0.0298494211
C  C385  1  0.77100000  0.61790000  0.65700000  0.75 -0.0298494211
C  C386  1  0.22900000  0.38210000  0.65700000  0.75 -0.0298494211
C  C387  1  0.61790000  0.22900000  0.65700000  0.75 -0.0298494211
C  C388  1  0.38210000  0.77100000  0.65700000  0.75 -0.0298494211
C  C389  1  0.77100000  0.38210000  0.34300000  0.75 -0.0298494211
C  C390  1  0.22900000  0.61790000  0.34300000  0.75 -0.0298494211
C  C391  1  0.61790000  0.77100000  0.34300000  0.75 -0.0298494211
C  C392  1  0.38210000  0.22900000  0.34300000  0.75 -0.0298494211
C  C393  1  0.72900000  0.88210000  0.84300000  0.75 -0.0298494211
C  C394  1  0.27100000  0.11790000  0.84300000  0.75 -0.0298494211
C  C395  1  0.88210000  0.27100000  0.84300000  0.75 -0.0298494211
C  C396  1  0.11790000  0.72900000  0.84300000  0.75 -0.0298494211
C  C397  1  0.72900000  0.11790000  0.15700000  0.75 -0.0298494211
C  C398  1  0.27100000  0.88210000  0.15700000  0.75 -0.0298494211
C  C399  1  0.88210000  0.72900000  0.15700000  0.75 -0.0298494211
C  C400  1  0.11790000  0.27100000  0.15700000  0.75 -0.0298494211
C  C401  1  0.73400000  0.64720000  0.68860000  0.75 0.0289873009
C  C402  1  0.26600000  0.35280000  0.68860000  0.75 0.0289873009
C  C403  1  0.64720000  0.26600000  0.68860000  0.75 0.0289873009
C  C404  1  0.35280000  0.73400000  0.68860000  0.75 0.0289873009
C  C405  1  0.73400000  0.35280000  0.31140000  0.75 0.0289873009
C  C406  1  0.26600000  0.64720000  0.31140000  0.75 0.0289873009
C  C407  1  0.64720000  0.73400000  0.31140000  0.75 0.0289873009
C  C408  1  0.35280000  0.26600000  0.31140000  0.75 0.0289873009
C  C409  1  0.76600000  0.85280000  0.81140000  0.75 0.0289873009
C  C410  1  0.23400000  0.14720000  0.81140000  0.75 0.0289873009
C  C411  1  0.85280000  0.23400000  0.81140000  0.75 0.0289873009
C  C412  1  0.14720000  0.76600000  0.81140000  0.75 0.0289873009
C  C413  1  0.76600000  0.14720000  0.18860000  0.75 0.0289873009
C  C414  1  0.23400000  0.85280000  0.18860000  0.75 0.0289873009
C  C415  1  0.85280000  0.76600000  0.18860000  0.75 0.0289873009
C  C416  1  0.14720000  0.23400000  0.18860000  0.75 0.0289873009
C  C417  1  0.73970000  0.65780000  0.75290000  0.75 0.1198618425
C  C418  1  0.26030000  0.34220000  0.75290000  0.75 0.1198618425
C  C419  1  0.65780000  0.26030000  0.75290000  0.75 0.1198618425
C  C420  1  0.34220000  0.73970000  0.75290000  0.75 0.1198618425
C  C421  1  0.73970000  0.34220000  0.24710000  0.75 0.1198618425
C  C422  1  0.26030000  0.65780000  0.24710000  0.75 0.1198618425
C  C423  1  0.65780000  0.73970000  0.24710000  0.75 0.1198618425
C  C424  1  0.34220000  0.26030000  0.24710000  0.75 0.1198618425
C  C425  1  0.76030000  0.84220000  0.74710000  0.75 0.1198618425
C  C426  1  0.23970000  0.15780000  0.74710000  0.75 0.1198618425
C  C427  1  0.84220000  0.23970000  0.74710000  0.75 0.1198618425
C  C428  1  0.15780000  0.76030000  0.74710000  0.75 0.1198618425
C  C429  1  0.76030000  0.15780000  0.25290000  0.75 0.1198618425
C  C430  1  0.23970000  0.84220000  0.25290000  0.75 0.1198618425
C  C431  1  0.84220000  0.76030000  0.25290000  0.75 0.1198618425
C  C432  1  0.15780000  0.23970000  0.25290000  0.75 0.1198618425
C  C433  1  0.78250000  0.63910000  0.78570000  0.75 -0.2753251572
C  C434  1  0.21750000  0.36090000  0.78570000  0.75 -0.2753251572
C  C435  1  0.63910000  0.21750000  0.78570000  0.75 -0.2753251572
C  C436  1  0.36090000  0.78250000  0.78570000  0.75 -0.2753251572
C  C437  1  0.78250000  0.36090000  0.21430000  0.75 -0.2753251572
C  C438  1  0.21750000  0.63910000  0.21430000  0.75 -0.2753251572
C  C439  1  0.63910000  0.78250000  0.21430000  0.75 -0.2753251572
C  C440  1  0.36090000  0.21750000  0.21430000  0.75 -0.2753251572
C  C441  1  0.71750000  0.86090000  0.71430000  0.75 -0.2753251572
C  C442  1  0.28250000  0.13910000  0.71430000  0.75 -0.2753251572
C  C443  1  0.86090000  0.28250000  0.71430000  0.75 -0.2753251572
C  C444  1  0.13910000  0.71750000  0.71430000  0.75 -0.2753251572
C  C445  1  0.71750000  0.13910000  0.28570000  0.75 -0.2753251572
C  C446  1  0.28250000  0.86090000  0.28570000  0.75 -0.2753251572
C  C447  1  0.86090000  0.71750000  0.28570000  0.75 -0.2753251572
C  C448  1  0.13910000  0.28250000  0.28570000  0.75 -0.2753251572
C  C449  1  0.81948000  0.60980000  0.75410000  0.75 0.003678965
C  C450  1  0.18052000  0.39020000  0.75410000  0.75 0.003678965
C  C451  1  0.60980000  0.18052000  0.75410000  0.75 0.003678965
C  C452  1  0.39020000  0.81948000  0.75410000  0.75 0.003678965
C  C453  1  0.81948000  0.39020000  0.24590000  0.75 0.003678965
C  C454  1  0.18052000  0.60980000  0.24590000  0.75 0.003678965
C  C455  1  0.60980000  0.81948000  0.24590000  0.75 0.003678965
C  C456  1  0.39020000  0.18052000  0.24590000  0.75 0.003678965
C  C457  1  0.68052000  0.89020000  0.74590000  0.75 0.003678965
C  C458  1  0.31948000  0.10980000  0.74590000  0.75 0.003678965
C  C459  1  0.89020000  0.31948000  0.74590000  0.75 0.003678965
C  C460  1  0.10980000  0.68052000  0.74590000  0.75 0.003678965
C  C461  1  0.68052000  0.10980000  0.25410000  0.75 0.003678965
C  C462  1  0.31948000  0.89020000  0.25410000  0.75 0.003678965
C  C463  1  0.89020000  0.68052000  0.25410000  0.75 0.003678965
C  C464  1  0.10980000  0.31948000  0.25410000  0.75 0.003678965
C  C465  1  0.64010000  0.66400000  0.67920000  0.75 0.1198618425
C  C466  1  0.35990000  0.33600000  0.67920000  0.75 0.1198618425
C  C467  1  0.66400000  0.35990000  0.67920000  0.75 0.1198618425
C  C468  1  0.33600000  0.64010000  0.67920000  0.75 0.1198618425
C  C469  1  0.64010000  0.33600000  0.32080000  0.75 0.1256248276
C  C470  1  0.35990000  0.66400000  0.32080000  0.75 0.1198618425
C  C471  1  0.66400000  0.64010000  0.32080000  0.75 0.1198618425
C  C472  1  0.33600000  0.35990000  0.32080000  0.75 0.1256248276
C  C473  1  0.85990000  0.83600000  0.82080000  0.75 0.1198618425
C  C474  1  0.14010000  0.16400000  0.82080000  0.75 0.1198618425
C  C475  1  0.83600000  0.14010000  0.82080000  0.75 0.1256248276
C  C476  1  0.16400000  0.85990000  0.82080000  0.75 0.1198618425
C  C477  1  0.85990000  0.16400000  0.17920000  0.75 0.1256248276
C  C478  1  0.14010000  0.83600000  0.17920000  0.75 0.1198618425
C  C479  1  0.83600000  0.85990000  0.17920000  0.75 0.1198618425
C  C480  1  0.16400000  0.14010000  0.17920000  0.75 0.1256248276
C  C481  1  0.68910000  0.67030000  0.65320000  0.75 0.0289873009
C  C482  1  0.31090000  0.32970000  0.65320000  0.75 0.0289873009
C  C483  1  0.67030000  0.31090000  0.65320000  0.75 0.0289873009
C  C484  1  0.32970000  0.68910000  0.65320000  0.75 0.0289873009
C  C485  1  0.68910000  0.32970000  0.34680000  0.75 0.0289873009
C  C486  1  0.31090000  0.67030000  0.34680000  0.75 0.0289873009
C  C487  1  0.67030000  0.68910000  0.34680000  0.75 0.0289873009
C  C488  1  0.32970000  0.31090000  0.34680000  0.75 0.0289873009
C  C489  1  0.81090000  0.82970000  0.84680000  0.75 0.0289873009
C  C490  1  0.18910000  0.17030000  0.84680000  0.75 0.0289873009
C  C491  1  0.82970000  0.18910000  0.84680000  0.75 0.0289873009
C  C492  1  0.17030000  0.81090000  0.84680000  0.75 0.0289873009
C  C493  1  0.81090000  0.17030000  0.15320000  0.75 0.0289873009
C  C494  1  0.18910000  0.82970000  0.15320000  0.75 0.0289873009
C  C495  1  0.82970000  0.81090000  0.15320000  0.75 0.0289873009
C  C496  1  0.17030000  0.18910000  0.15320000  0.75 0.0289873009
C  C497  1  0.69570000  0.70090000  0.59960000  0.75 -0.0298494211
C  C498  1  0.30430000  0.29910000  0.59960000  0.75 -0.0298494211
C  C499  1  0.70090000  0.30430000  0.59960000  0.75 -0.0298494211
C  C500  1  0.29910000  0.69570000  0.59960000  0.75 -0.0298494211
C  C501  1  0.69570000  0.29910000  0.40040000  0.75 -0.0298494211
C  C502  1  0.30430000  0.70090000  0.40040000  0.75 -0.0298494211
C  C503  1  0.70090000  0.69570000  0.40040000  0.75 -0.0298494211
C  C504  1  0.29910000  0.30430000  0.40040000  0.75 -0.0298494211
C  C505  1  0.80430000  0.79910000  0.90040000  0.75 -0.0298494211
C  C506  1  0.19570000  0.20090000  0.90040000  0.75 -0.0298494211
C  C507  1  0.79910000  0.19570000  0.90040000  0.75 -0.0298494211
C  C508  1  0.20090000  0.80430000  0.90040000  0.75 -0.0298494211
C  C509  1  0.80430000  0.20090000  0.09960000  0.75 -0.0298494211
C  C510  1  0.19570000  0.79910000  0.09960000  0.75 -0.0298494211
C  C511  1  0.79910000  0.80430000  0.09960000  0.75 -0.0298494211
C  C512  1  0.20090000  0.19570000  0.09960000  0.75 -0.0298494211
C  C513  1  0.65340000  0.72530000  0.57200000  0.75 -0.0298494211
C  C514  1  0.34660000  0.27470000  0.57200000  0.75 -0.0298494211
C  C515  1  0.72530000  0.34660000  0.57200000  0.75 -0.0298494211
C  C516  1  0.27470000  0.65340000  0.57200000  0.75 -0.0298494211
C  C517  1  0.65340000  0.27470000  0.42800000  0.75 -0.0298494211
C  C518  1  0.34660000  0.72530000  0.42800000  0.75 -0.0298494211
C  C519  1  0.72530000  0.65340000  0.42800000  0.75 -0.0298494211
C  C520  1  0.27470000  0.34660000  0.42800000  0.75 -0.0298494211
C  C521  1  0.84660000  0.77470000  0.92800000  0.75 -0.0298494211
C  C522  1  0.15340000  0.22530000  0.92800000  0.75 -0.0298494211
C  C523  1  0.77470000  0.15340000  0.92800000  0.75 -0.0298494211
C  C524  1  0.22530000  0.84660000  0.92800000  0.75 -0.0298494211
C  C525  1  0.84660000  0.22530000  0.07200000  0.75 -0.0298494211
C  C526  1  0.15340000  0.77470000  0.07200000  0.75 -0.0298494211
C  C527  1  0.77470000  0.84660000  0.07200000  0.75 -0.0298494211
C  C528  1  0.22530000  0.15340000  0.07200000  0.75 -0.0298494211
C  C529  1  0.60440000  0.71900000  0.59810000  0.75 0.0056355664
C  C530  1  0.39560000  0.28100000  0.59810000  0.75 0.0056355664
C  C531  1  0.71900000  0.39560000  0.59810000  0.75 0.0056355664
C  C532  1  0.28100000  0.60440000  0.59810000  0.75 0.0056355664
C  C533  1  0.60440000  0.28100000  0.40190000  0.75 0.0056355664
C  C534  1  0.39560000  0.71900000  0.40190000  0.75 0.0056355664
C  C535  1  0.71900000  0.60440000  0.40190000  0.75 0.0056355664
C  C536  1  0.28100000  0.39560000  0.40190000  0.75 0.0056355664
C  C537  1  0.89560000  0.78100000  0.90190000  0.75 0.0056355664
C  C538  1  0.10440000  0.21900000  0.90190000  0.75 0.0056355664
C  C539  1  0.78100000  0.10440000  0.90190000  0.75 0.0056355664
C  C540  1  0.21900000  0.89560000  0.90190000  0.75 0.0056355664
C  C541  1  0.89560000  0.21900000  0.09810000  0.75 0.0056355664
C  C542  1  0.10440000  0.78100000  0.09810000  0.75 0.0056355664
C  C543  1  0.78100000  0.89560000  0.09810000  0.75 0.0056355664
C  C544  1  0.21900000  0.10440000  0.09810000  0.75 0.0056355664
C  C545  1  0.59780000  0.68840000  0.65170000  0.75 -0.2384986956
C  C546  1  0.40220000  0.31160000  0.65170000  0.75 -0.2384986956
C  C547  1  0.68840000  0.40220000  0.65170000  0.75 -0.2384986956
C  C548  1  0.31160000  0.59780000  0.65170000  0.75 -0.2384986956
C  C549  1  0.59780000  0.31160000  0.34830000  0.75 -0.2384986956
C  C550  1  0.40220000  0.68840000  0.34830000  0.75 -0.2384986956
C  C551  1  0.68840000  0.59780000  0.34830000  0.75 -0.2384986956
C  C552  1  0.31160000  0.40220000  0.34830000  0.75 -0.2384986956
C  C553  1  0.90220000  0.81160000  0.84830000  0.75 -0.2384986956
C  C554  1  0.09780000  0.18840000  0.84830000  0.75 -0.2384986956
C  C555  1  0.81160000  0.09780000  0.84830000  0.75 -0.2384986956
C  C556  1  0.18840000  0.90220000  0.84830000  0.75 -0.2384986956
C  C557  1  0.90220000  0.18840000  0.15170000  0.75 -0.2384986956
C  C558  1  0.09780000  0.81160000  0.15170000  0.75 -0.2384986956
C  C559  1  0.81160000  0.90220000  0.15170000  0.75 -0.2384986956
C  C560  1  0.18840000  0.09780000  0.15170000  0.75 -0.2384986956
N  N1  1  0.01975000  0.64078000  0.93222000  1.0 -0.3653747319
N  N2  1  0.98025000  0.35922000  0.93222000  1.0 -0.3653747319
N  N3  1  0.64078000  0.98025000  0.93222000  1.0 -0.3653747319
N  N4  1  0.35922000  0.01975000  0.93222000  1.0 -0.3653747319
N  N5  1  0.01975000  0.35922000  0.06778000  1.0 -0.3638979573
N  N6  1  0.98025000  0.64078000  0.06778000  1.0 -0.3638979573
N  N7  1  0.64078000  0.01975000  0.06778000  1.0 -0.3638979573
N  N8  1  0.35922000  0.98025000  0.06778000  1.0 -0.3638979573
N  N9  1  0.48025000  0.85922000  0.56778000  1.0 -0.3653747319
N  N10  1  0.51975000  0.14078000  0.56778000  1.0 -0.3638979573
N  N11  1  0.85922000  0.51975000  0.56778000  1.0 -0.3638979573
N  N12  1  0.14078000  0.48025000  0.56778000  1.0 -0.3653747319
N  N13  1  0.48025000  0.14078000  0.43222000  1.0 -0.3638979573
N  N14  1  0.51975000  0.85922000  0.43222000  1.0 -0.3653747319
N  N15  1  0.85922000  0.48025000  0.43222000  1.0 -0.3638979573
N  N16  1  0.14078000  0.51975000  0.43222000  1.0 -0.3653747319
N  N17  1  0.99595000  0.57694000  0.86424000  1.0 -0.3638979573
N  N18  1  0.00405000  0.42306000  0.86424000  1.0 -0.3638979573
N  N19  1  0.57694000  0.00405000  0.86424000  1.0 -0.3638979573
N  N20  1  0.42306000  0.99595000  0.86424000  1.0 -0.3638979573
N  N21  1  0.99595000  0.42306000  0.13576000  1.0 -0.3638979573
N  N22  1  0.00405000  0.57694000  0.13576000  1.0 -0.3638979573
N  N23  1  0.57694000  0.99595000  0.13576000  1.0 -0.3638979573
N  N24  1  0.42306000  0.00405000  0.13576000  1.0 -0.3638979573
N  N25  1  0.50405000  0.92306000  0.63576000  1.0 -0.3638979573
N  N26  1  0.49595000  0.07694000  0.63576000  1.0 -0.3638979573
N  N27  1  0.92306000  0.49595000  0.63576000  1.0 -0.3638979573
N  N28  1  0.07694000  0.50405000  0.63576000  1.0 -0.3638979573
N  N29  1  0.50405000  0.07694000  0.36424000  1.0 -0.3638979573
N  N30  1  0.49595000  0.92306000  0.36424000  1.0 -0.3638979573
N  N31  1  0.92306000  0.50405000  0.36424000  1.0 -0.3638979573
N  N32  1  0.07694000  0.49595000  0.36424000  1.0 -0.3638979573
N  N33  1  0.07273000  0.52405000  0.87017000  1.0 -0.3653747319
N  N34  1  0.92727000  0.47595000  0.87017000  1.0 -0.3653747319
N  N35  1  0.52405000  0.92727000  0.87017000  1.0 -0.3653747319
N  N36  1  0.47595000  0.07273000  0.87017000  1.0 -0.3653747319
N  N37  1  0.07273000  0.47595000  0.12983000  1.0 -0.3653747319
N  N38  1  0.92727000  0.52405000  0.12983000  1.0 -0.3653747319
N  N39  1  0.52405000  0.07273000  0.12983000  1.0 -0.3653747319
N  N40  1  0.47595000  0.92727000  0.12983000  1.0 -0.3653747319
N  N41  1  0.42727000  0.97595000  0.62983000  1.0 -0.3653747319
N  N42  1  0.57273000  0.02405000  0.62983000  1.0 -0.3653747319
N  N43  1  0.97595000  0.57273000  0.62983000  1.0 -0.3653747319
N  N44  1  0.02405000  0.42727000  0.62983000  1.0 -0.3653747319
N  N45  1  0.42727000  0.02405000  0.37017000  1.0 -0.3653747319
N  N46  1  0.57273000  0.97595000  0.37017000  1.0 -0.3653747319
N  N47  1  0.97595000  0.42727000  0.37017000  1.0 -0.3653747319
N  N48  1  0.02405000  0.57273000  0.37017000  1.0 -0.3653747319
N  N49  1  0.13719000  0.55832000  0.93980000  1.0 -0.3523856406
N  N50  1  0.86281000  0.44168000  0.93980000  1.0 -0.3523856406
N  N51  1  0.55832000  0.86281000  0.93980000  1.0 -0.3523856406
N  N52  1  0.44168000  0.13719000  0.93980000  1.0 -0.3523856406
N  N53  1  0.13719000  0.44168000  0.06020000  1.0 -0.3523856406
N  N54  1  0.86281000  0.55832000  0.06020000  1.0 -0.3523856406
N  N55  1  0.55832000  0.13719000  0.06020000  1.0 -0.3523856406
N  N56  1  0.44168000  0.86281000  0.06020000  1.0 -0.3523856406
N  N57  1  0.36281000  0.94168000  0.56020000  1.0 -0.3523856406
N  N58  1  0.63719000  0.05832000  0.56020000  1.0 -0.3523856406
N  N59  1  0.94168000  0.63719000  0.56020000  1.0 -0.3523856406
N  N60  1  0.05832000  0.36281000  0.56020000  1.0 -0.3523856406
N  N61  1  0.36281000  0.05832000  0.43980000  1.0 -0.3523856406
N  N62  1  0.63719000  0.94168000  0.43980000  1.0 -0.3523856406
N  N63  1  0.94168000  0.36281000  0.43980000  1.0 -0.3523856406
N  N64  1  0.05832000  0.63719000  0.43980000  1.0 -0.3523856406
N  N65  1  0.12942000  0.63681000  0.99280000  1.0 -0.3168134991
N  N66  1  0.87058000  0.36319000  0.99280000  1.0 -0.3168134991
N  N67  1  0.63681000  0.87058000  0.99280000  1.0 -0.3168134991
N  N68  1  0.36319000  0.12942000  0.99280000  1.0 -0.3168134991
N  N69  1  0.12942000  0.36319000  0.00720000  1.0 -0.3168134991
N  N70  1  0.87058000  0.63681000  0.00720000  1.0 -0.3168134991
N  N71  1  0.63681000  0.12942000  0.00720000  1.0 -0.3168134991
N  N72  1  0.36319000  0.87058000  0.00720000  1.0 -0.3168134991
N  N73  1  0.37058000  0.86319000  0.50720000  1.0 -0.3168134991
N  N74  1  0.62942000  0.13681000  0.50720000  1.0 -0.3168134991
N  N75  1  0.86319000  0.62942000  0.50720000  1.0 -0.3168134991
N  N76  1  0.13681000  0.37058000  0.50720000  1.0 -0.3168134991
N  N77  1  0.37058000  0.13681000  0.49280000  1.0 -0.3168134991
N  N78  1  0.62942000  0.86319000  0.49280000  1.0 -0.3168134991
N  N79  1  0.86319000  0.37058000  0.49280000  1.0 -0.3168134991
N  N80  1  0.13681000  0.62942000  0.49280000  1.0 -0.3168134991
N  N81  1  0.71490000  0.75190000  0.67690000  0.25 -0.5573203642
N  N82  1  0.28510000  0.24810000  0.67690000  0.25 -0.5573203642
N  N83  1  0.75190000  0.28510000  0.67690000  0.25 -0.5573203642
N  N84  1  0.24810000  0.71490000  0.67690000  0.25 -0.5573203642
N  N85  1  0.71490000  0.24810000  0.32310000  0.25 -0.5573203642
N  N86  1  0.28510000  0.75190000  0.32310000  0.25 -0.5573203642
N  N87  1  0.75190000  0.71490000  0.32310000  0.25 -0.5573203642
N  N88  1  0.24810000  0.28510000  0.32310000  0.25 -0.5573203642
N  N89  1  0.78510000  0.74810000  0.82310000  0.25 -0.5573203642
N  N90  1  0.21490000  0.25190000  0.82310000  0.25 -0.5573203642
N  N91  1  0.74810000  0.21490000  0.82310000  0.25 -0.5573203642
N  N92  1  0.25190000  0.78510000  0.82310000  0.25 -0.5573203642
N  N93  1  0.78510000  0.25190000  0.17690000  0.25 -0.5573203642
N  N94  1  0.21490000  0.74810000  0.17690000  0.25 -0.5573203642
N  N95  1  0.74810000  0.78510000  0.17690000  0.25 -0.5573203642
N  N96  1  0.25190000  0.21490000  0.17690000  0.25 -0.5573203642
N  N97  1  0.79560000  0.72890000  0.62720000  0.25 -0.5895000551
N  N98  1  0.20440000  0.27110000  0.62720000  0.25 -0.5895000551
N  N99  1  0.72890000  0.20440000  0.62720000  0.25 -0.5895000551
N  N100  1  0.27110000  0.79560000  0.62720000  0.25 -0.5895000551
N  N101  1  0.79560000  0.27110000  0.37280000  0.25 -0.5895000551
N  N102  1  0.20440000  0.72890000  0.37280000  0.25 -0.5895000551
N  N103  1  0.72890000  0.79560000  0.37280000  0.25 -0.5895000551
N  N104  1  0.27110000  0.20440000  0.37280000  0.25 -0.5895000551
N  N105  1  0.70440000  0.77110000  0.87280000  0.25 -0.5895000551
N  N106  1  0.29560000  0.22890000  0.87280000  0.25 -0.5895000551
N  N107  1  0.77110000  0.29560000  0.87280000  0.25 -0.5895000551
N  N108  1  0.22890000  0.70440000  0.87280000  0.25 -0.5895000551
N  N109  1  0.70440000  0.22890000  0.12720000  0.25 -0.5895000551
N  N110  1  0.29560000  0.77110000  0.12720000  0.25 -0.5895000551
N  N111  1  0.77110000  0.70440000  0.12720000  0.25 -0.5895000551
N  N112  1  0.22890000  0.29560000  0.12720000  0.25 -0.5895000551
N  N113  1  0.70140000  0.68680000  0.78310000  0.75 -0.5408913721
N  N114  1  0.29860000  0.31320000  0.78310000  0.75 -0.5408913721
N  N115  1  0.68680000  0.29860000  0.78310000  0.75 -0.5408913721
N  N116  1  0.31320000  0.70140000  0.78310000  0.75 -0.5408913721
N  N117  1  0.70140000  0.31320000  0.21690000  0.75 -0.5408913721
N  N118  1  0.29860000  0.68680000  0.21690000  0.75 -0.5408913721
N  N119  1  0.68680000  0.70140000  0.21690000  0.75 -0.5408913721
N  N120  1  0.31320000  0.29860000  0.21690000  0.75 -0.5408913721
N  N121  1  0.79860000  0.81320000  0.71690000  0.75 -0.5408913721
N  N122  1  0.20140000  0.18680000  0.71690000  0.75 -0.5408913721
N  N123  1  0.81320000  0.20140000  0.71690000  0.75 -0.5408913721
N  N124  1  0.18680000  0.79860000  0.71690000  0.75 -0.5408913721
N  N125  1  0.79860000  0.18680000  0.28310000  0.75 -0.5408913721
N  N126  1  0.20140000  0.81320000  0.28310000  0.75 -0.5408913721
N  N127  1  0.81320000  0.79860000  0.28310000  0.75 -0.5408913721
N  N128  1  0.18680000  0.20140000  0.28310000  0.75 -0.5408913721
N  N129  1  0.63460000  0.63830000  0.74010000  0.75 -0.5487587531
N  N130  1  0.36540000  0.36170000  0.74010000  0.75 -0.5487587531
N  N131  1  0.63830000  0.36540000  0.74010000  0.75 -0.5487587531
N  N132  1  0.36170000  0.63460000  0.74010000  0.75 -0.5487587531
N  N133  1  0.63460000  0.36170000  0.25990000  0.75 -0.5487587531
N  N134  1  0.36540000  0.63830000  0.25990000  0.75 -0.5487587531
N  N135  1  0.63830000  0.63460000  0.25990000  0.75 -0.5487587531
N  N136  1  0.36170000  0.36540000  0.25990000  0.75 -0.5487587531
N  N137  1  0.86540000  0.86170000  0.75990000  0.75 -0.5487587531
N  N138  1  0.13460000  0.13830000  0.75990000  0.75 -0.5487587531
N  N139  1  0.86170000  0.13460000  0.75990000  0.75 -0.5487587531
N  N140  1  0.13830000  0.86540000  0.75990000  0.75 -0.5487587531
N  N141  1  0.86540000  0.13830000  0.24010000  0.75 -0.5487587531
N  N142  1  0.13460000  0.86170000  0.24010000  0.75 -0.5487587531
N  N143  1  0.86170000  0.86540000  0.24010000  0.75 -0.5487587531
N  N144  1  0.13830000  0.13460000  0.24010000  0.75 -0.5487587531
O  O1  1  0.57350000  0.77560000  0.52400000  0.34 -0.252043554
O  O2  1  0.42650000  0.22440000  0.52400000  0.34 -0.252043554
O  O3  1  0.77560000  0.42650000  0.52400000  0.34 -0.252043554
O  O4  1  0.22440000  0.57350000  0.52400000  0.34 -0.252043554
O  O5  1  0.57350000  0.22440000  0.47600000  0.34 -0.252043554
O  O6  1  0.42650000  0.77560000  0.47600000  0.34 -0.252043554
O  O7  1  0.77560000  0.57350000  0.47600000  0.34 -0.252043554
O  O8  1  0.22440000  0.42650000  0.47600000  0.34 -0.252043554
O  O9  1  0.92650000  0.72440000  0.97600000  0.34 -0.252043554
O  O10  1  0.07350000  0.27560000  0.97600000  0.34 -0.252043554
O  O11  1  0.72440000  0.07350000  0.97600000  0.34 -0.252043554
O  O12  1  0.27560000  0.92650000  0.97600000  0.34 -0.252043554
O  O13  1  0.92650000  0.27560000  0.02400000  0.34 -0.252043554
O  O14  1  0.07350000  0.72440000  0.02400000  0.34 -0.252043554
O  O15  1  0.72440000  0.92650000  0.02400000  0.34 -0.252043554
O  O16  1  0.27560000  0.07350000  0.02400000  0.34 -0.252043554
O  O17  1  0.55710000  0.70620000  0.47680000  0.34 -0.3903534575
O  O18  1  0.44290000  0.29380000  0.47680000  0.34 -0.3903534575
O  O19  1  0.70620000  0.44290000  0.47680000  0.34 -0.3903534575
O  O20  1  0.29380000  0.55710000  0.47680000  0.34 -0.3903534575
O  O21  1  0.55710000  0.29380000  0.52320000  0.34 -0.3903534575
O  O22  1  0.44290000  0.70620000  0.52320000  0.34 -0.3903534575
O  O23  1  0.70620000  0.55710000  0.52320000  0.34 -0.3903534575
O  O24  1  0.29380000  0.44290000  0.52320000  0.34 -0.3903534575
O  O25  1  0.94290000  0.79380000  0.02320000  0.34 -0.3903534575
O  O26  1  0.05710000  0.20620000  0.02320000  0.34 -0.3903534575
O  O27  1  0.79380000  0.05710000  0.02320000  0.34 -0.3903534575
O  O28  1  0.20620000  0.94290000  0.02320000  0.34 -0.3903534575
O  O29  1  0.94290000  0.20620000  0.97680000  0.34 -0.3903534575
O  O30  1  0.05710000  0.79380000  0.97680000  0.34 -0.3903534575
O  O31  1  0.79380000  0.94290000  0.97680000  0.34 -0.3903534575
O  O32  1  0.20620000  0.05710000  0.97680000  0.34 -0.3903534575
O  O33  1  0.00000000  0.50000000  0.75000000  1.0 -0.7880922634
O  O34  1  0.50000000  0.00000000  0.75000000  1.0 -0.7880922634
O  O35  1  0.00000000  0.50000000  0.25000000  1.0 -0.7880922634
O  O36  1  0.50000000  0.00000000  0.25000000  1.0 -0.7880922634
O  O37  1  0.92600000  0.62270000  0.75130000  0.36 -0.3903534575
O  O38  1  0.07400000  0.37730000  0.75130000  0.36 -0.3903534575
O  O39  1  0.62270000  0.07400000  0.75130000  0.36 -0.3903534575
O  O40  1  0.37730000  0.92600000  0.75130000  0.36 -0.3903534575
O  O41  1  0.92600000  0.37730000  0.24870000  0.36 -0.3903534575
O  O42  1  0.07400000  0.62270000  0.24870000  0.36 -0.3903534575
O  O43  1  0.62270000  0.92600000  0.24870000  0.36 -0.3903534575
O  O44  1  0.37730000  0.07400000  0.24870000  0.36 -0.3903534575
O  O45  1  0.57400000  0.87730000  0.74870000  0.36 -0.3903534575
O  O46  1  0.42600000  0.12270000  0.74870000  0.36 -0.3903534575
O  O47  1  0.87730000  0.42600000  0.74870000  0.36 -0.3903534575
O  O48  1  0.12270000  0.57400000  0.74870000  0.36 -0.3903534575
O  O49  1  0.57400000  0.12270000  0.25130000  0.36 -0.3903534575
O  O50  1  0.42600000  0.87730000  0.25130000  0.36 -0.3903534575
O  O51  1  0.87730000  0.57400000  0.25130000  0.36 -0.3903534575
O  O52  1  0.12270000  0.42600000  0.25130000  0.36 -0.3903534575
O  O53  1  0.88340000  0.55270000  0.77860000  0.36 -0.03688993
O  O54  1  0.11660000  0.44730000  0.77860000  0.36 -0.03688993
O  O55  1  0.55270000  0.11660000  0.77860000  0.36 -0.03688993
O  O56  1  0.44730000  0.88340000  0.77860000  0.36 -0.03688993
O  O57  1  0.88340000  0.44730000  0.22140000  0.36 -0.03688993
O  O58  1  0.11660000  0.55270000  0.22140000  0.36 -0.03688993
O  O59  1  0.55270000  0.88340000  0.22140000  0.36 -0.03688993
O  O60  1  0.44730000  0.11660000  0.22140000  0.36 -0.03688993
O  O61  1  0.61660000  0.94730000  0.72140000  0.36 -0.03688993
O  O62  1  0.38340000  0.05270000  0.72140000  0.36 -0.03688993
O  O63  1  0.94730000  0.38340000  0.72140000  0.36 -0.03688993
O  O64  1  0.05270000  0.61660000  0.72140000  0.36 -0.03688993
O  O65  1  0.61660000  0.05270000  0.27860000  0.36 -0.03688993
O  O66  1  0.38340000  0.94730000  0.27860000  0.36 -0.03688993
O  O67  1  0.94730000  0.61660000  0.27860000  0.36 -0.03688993
O  O68  1  0.05270000  0.38340000  0.27860000  0.36 -0.03688993
O  O69  1  0.19000000  0.60090000  0.05820000  0.45 -0.1808844809
O  O70  1  0.81000000  0.39910000  0.05820000  0.45 -0.1808844809
O  O71  1  0.60090000  0.81000000  0.05820000  0.45 -0.1808844809
O  O72  1  0.39910000  0.19000000  0.05820000  0.45 -0.1808844809
O  O73  1  0.19000000  0.39910000  0.94180000  0.45 -0.1808844809
O  O74  1  0.81000000  0.60090000  0.94180000  0.45 -0.1808844809
O  O75  1  0.60090000  0.19000000  0.94180000  0.45 -0.1808844809
O  O76  1  0.39910000  0.81000000  0.94180000  0.45 -0.1808844809
O  O77  1  0.31000000  0.89910000  0.44180000  0.45 -0.1808844809
O  O78  1  0.69000000  0.10090000  0.44180000  0.45 -0.1808844809
O  O79  1  0.89910000  0.69000000  0.44180000  0.45 -0.1808844809
O  O80  1  0.10090000  0.31000000  0.44180000  0.45 -0.1808844809
O  O81  1  0.31000000  0.10090000  0.55820000  0.45 -0.1808844809
O  O82  1  0.69000000  0.89910000  0.55820000  0.45 -0.1808844809
O  O83  1  0.89910000  0.31000000  0.55820000  0.45 -0.1808844809
O  O84  1  0.10090000  0.69000000  0.55820000  0.45 -0.1808844809
O  O85  1  0.21700000  0.64580000  0.98520000  0.55 -0.2087050718
O  O86  1  0.78300000  0.35420000  0.98520000  0.55 -0.2087050718
O  O87  1  0.64580000  0.78300000  0.98520000  0.55 -0.2087050718
O  O88  1  0.35420000  0.21700000  0.98520000  0.55 -0.2087050718
O  O89  1  0.21700000  0.35420000  0.01480000  0.55 -0.2087050718
O  O90  1  0.78300000  0.64580000  0.01480000  0.55 -0.2087050718
O  O91  1  0.64580000  0.21700000  0.01480000  0.55 -0.2087050718
O  O92  1  0.35420000  0.78300000  0.01480000  0.55 -0.2087050718
O  O93  1  0.28300000  0.85420000  0.51480000  0.55 -0.2087050718
O  O94  1  0.71700000  0.14580000  0.51480000  0.55 -0.2087050718
O  O95  1  0.85420000  0.71700000  0.51480000  0.55 -0.2087050718
O  O96  1  0.14580000  0.28300000  0.51480000  0.55 -0.2087050718
O  O97  1  0.28300000  0.14580000  0.48520000  0.55 -0.2087050718
O  O98  1  0.71700000  0.85420000  0.48520000  0.55 -0.2087050718
O  O99  1  0.85420000  0.28300000  0.48520000  0.55 -0.2087050718
O  O100  1  0.14580000  0.71700000  0.48520000  0.55 -0.2087050718
O  O101  1  0.89680000  0.56310000  0.75810000  0.64 -0.0095030631
O  O102  1  0.10320000  0.43690000  0.75810000  0.64 -0.0095030631
O  O103  1  0.56310000  0.10320000  0.75810000  0.64 -0.0095030631
O  O104  1  0.43690000  0.89680000  0.75810000  0.64 -0.0095030631
O  O105  1  0.89680000  0.43690000  0.24190000  0.64 -0.0095030631
O  O106  1  0.10320000  0.56310000  0.24190000  0.64 -0.0095030631
O  O107  1  0.56310000  0.89680000  0.24190000  0.64 -0.0095030631
O  O108  1  0.43690000  0.10320000  0.24190000  0.64 -0.0095030631
O  O109  1  0.60320000  0.93690000  0.74190000  0.64 -0.0095030631
O  O110  1  0.39680000  0.06310000  0.74190000  0.64 -0.0095030631
O  O111  1  0.93690000  0.39680000  0.74190000  0.64 -0.0095030631
O  O112  1  0.06310000  0.60320000  0.74190000  0.64 -0.0095030631
O  O113  1  0.60320000  0.06310000  0.25810000  0.64 -0.0095030631
O  O114  1  0.39680000  0.93690000  0.25810000  0.64 -0.0095030631
O  O115  1  0.93690000  0.60320000  0.25810000  0.64 -0.0095030631
O  O116  1  0.06310000  0.39680000  0.25810000  0.64 -0.0095030631
O  O117  1  0.87000000  0.59810000  0.84730000  0.64 -0.4625015784
O  O118  1  0.13000000  0.40190000  0.84730000  0.64 -0.4625015784
O  O119  1  0.59810000  0.13000000  0.84730000  0.64 -0.4625015784
O  O120  1  0.40190000  0.87000000  0.84730000  0.64 -0.4625015784
O  O121  1  0.87000000  0.40190000  0.15270000  0.64 -0.4625015784
O  O122  1  0.13000000  0.59810000  0.15270000  0.64 -0.4625015784
O  O123  1  0.59810000  0.87000000  0.15270000  0.64 -0.4625015784
O  O124  1  0.40190000  0.13000000  0.15270000  0.64 -0.4625015784
O  O125  1  0.63000000  0.90190000  0.65270000  0.64 -0.4625015784
O  O126  1  0.37000000  0.09810000  0.65270000  0.64 -0.4625015784
O  O127  1  0.90190000  0.37000000  0.65270000  0.64 -0.4625015784
O  O128  1  0.09810000  0.63000000  0.65270000  0.64 -0.4625015784
O  O129  1  0.63000000  0.09810000  0.34730000  0.64 -0.4625015784
O  O130  1  0.37000000  0.90190000  0.34730000  0.64 -0.4625015784
O  O131  1  0.90190000  0.63000000  0.34730000  0.64 -0.4625015784
O  O132  1  0.09810000  0.37000000  0.34730000  0.64 -0.4625015784
O  O133  1  0.56020000  0.77940000  0.53150000  0.67 -0.2571626906
O  O134  1  0.43980000  0.22060000  0.53150000  0.67 -0.2571626906
O  O135  1  0.77940000  0.43980000  0.53150000  0.67 -0.2571626906
O  O136  1  0.22060000  0.56020000  0.53150000  0.67 -0.2571626906
O  O137  1  0.56020000  0.22060000  0.46850000  0.67 -0.2571626906
O  O138  1  0.43980000  0.77940000  0.46850000  0.67 -0.2571626906
O  O139  1  0.77940000  0.56020000  0.46850000  0.67 -0.2571626906
O  O140  1  0.22060000  0.43980000  0.46850000  0.67 -0.2571626906
O  O141  1  0.93980000  0.72060000  0.96850000  0.67 -0.2571626906
O  O142  1  0.06020000  0.27940000  0.96850000  0.67 -0.2571626906
O  O143  1  0.72060000  0.06020000  0.96850000  0.67 -0.2571626906
O  O144  1  0.27940000  0.93980000  0.96850000  0.67 -0.2571626906
O  O145  1  0.93980000  0.27940000  0.03150000  0.67 -0.2571626906
O  O146  1  0.06020000  0.72060000  0.03150000  0.67 -0.2571626906
O  O147  1  0.72060000  0.93980000  0.03150000  0.67 -0.2571626906
O  O148  1  0.27940000  0.06020000  0.03150000  0.67 -0.2571626906
O  O149  1  0.51570000  0.73150000  0.58240000  0.67 -0.3841278744
O  O150  1  0.48430000  0.26850000  0.58240000  0.67 -0.3841278744
O  O151  1  0.73150000  0.48430000  0.58240000  0.67 -0.3841278744
O  O152  1  0.26850000  0.51570000  0.58240000  0.67 -0.3841278744
O  O153  1  0.51570000  0.26850000  0.41760000  0.67 -0.3841278744
O  O154  1  0.48430000  0.73150000  0.41760000  0.67 -0.3841278744
O  O155  1  0.73150000  0.51570000  0.41760000  0.67 -0.3841278744
O  O156  1  0.26850000  0.48430000  0.41760000  0.67 -0.3841278744
O  O157  1  0.98430000  0.76850000  0.91760000  0.67 -0.3841278744
O  O158  1  0.01570000  0.23150000  0.91760000  0.67 -0.3841278744
O  O159  1  0.76850000  0.01570000  0.91760000  0.67 -0.3841278744
O  O160  1  0.23150000  0.98430000  0.91760000  0.67 -0.3841278744
O  O161  1  0.98430000  0.23150000  0.08240000  0.67 -0.3841278744
O  O162  1  0.01570000  0.76850000  0.08240000  0.67 -0.3841278744
O  O163  1  0.76850000  0.98430000  0.08240000  0.67 -0.3841278744
O  O164  1  0.23150000  0.01570000  0.08240000  0.67 -0.3841278744
