# DDEC6 charges by PACMAN v1.1 (https://github.com/mtap-research/PACMAN-charge/)
data_ja512311a_si_013_ASR_pacman
_symmetry_space_group_name_H-M   'P 1'
_cell_length_a   25.88800000
_cell_length_b   25.88800000
_cell_length_c   25.88800000
_cell_angle_alpha   90.00000000
_cell_angle_beta   90.00000000
_cell_angle_gamma   90.00000000
_symmetry_Int_Tables_number   1
_chemical_formula_structural   Zn4H36C54N6O13
_chemical_formula_sum   'Zn32 H288 C432 N48 O104'
_cell_volume   17349.84102707
_cell_formula_units_Z   8
loop_
 _symmetry_equiv_pos_site_id
 _symmetry_equiv_pos_as_xyz
  1  'x, y, z'
loop_
 _atom_site_type_symbol
 _atom_site_label
 _atom_site_symmetry_multiplicity
 _atom_site_fract_x
 _atom_site_fract_y
 _atom_site_fract_z
 _atom_site_occupancy
 _atom_site_charge
Zn  Zn1  1  0.79722000  0.70278000  0.29722000  1.0 0.8280549561
Zn  Zn2  1  0.70278000  0.29722000  0.79722000  1.0 0.8280549561
Zn  Zn3  1  0.20278000  0.20278000  0.20278000  1.0 0.8280549561
Zn  Zn4  1  0.29722000  0.79722000  0.70278000  1.0 0.8280549561
Zn  Zn5  1  0.78816000  0.81108000  0.24124000  1.0 0.8590871756
Zn  Zn6  1  0.71184000  0.18892000  0.74124000  1.0 0.8590871756
Zn  Zn7  1  0.21184000  0.31108000  0.25876000  1.0 0.8590871756
Zn  Zn8  1  0.28816000  0.68892000  0.75876000  1.0 0.8590871756
Zn  Zn9  1  0.24124000  0.78816000  0.81108000  1.0 0.8590871756
Zn  Zn10  1  0.74124000  0.71184000  0.18892000  1.0 0.8590871756
Zn  Zn11  1  0.25876000  0.21184000  0.31108000  1.0 0.8590871756
Zn  Zn12  1  0.75876000  0.28816000  0.68892000  1.0 0.8590871756
Zn  Zn13  1  0.81108000  0.24124000  0.78816000  1.0 0.8590871756
Zn  Zn14  1  0.18892000  0.74124000  0.71184000  1.0 0.8590871756
Zn  Zn15  1  0.31108000  0.25876000  0.21184000  1.0 0.8590871756
Zn  Zn16  1  0.68892000  0.75876000  0.28816000  1.0 0.8590871756
Zn  Zn17  1  0.20278000  0.29722000  0.70278000  1.0 0.8280549561
Zn  Zn18  1  0.29722000  0.70278000  0.20278000  1.0 0.8280549561
Zn  Zn19  1  0.79722000  0.79722000  0.79722000  1.0 0.8280549561
Zn  Zn20  1  0.70278000  0.20278000  0.29722000  1.0 0.8280549561
Zn  Zn21  1  0.21184000  0.18892000  0.75876000  1.0 0.8590871756
Zn  Zn22  1  0.28816000  0.81108000  0.25876000  1.0 0.8590871756
Zn  Zn23  1  0.78816000  0.68892000  0.74124000  1.0 0.8590871756
Zn  Zn24  1  0.71184000  0.31108000  0.24124000  1.0 0.8590871756
Zn  Zn25  1  0.75876000  0.21184000  0.18892000  1.0 0.8590871756
Zn  Zn26  1  0.25876000  0.28816000  0.81108000  1.0 0.8590871756
Zn  Zn27  1  0.74124000  0.78816000  0.68892000  1.0 0.8590871756
Zn  Zn28  1  0.24124000  0.71184000  0.31108000  1.0 0.8590871756
Zn  Zn29  1  0.18892000  0.75876000  0.21184000  1.0 0.8590871756
Zn  Zn30  1  0.81108000  0.25876000  0.28816000  1.0 0.8590871756
Zn  Zn31  1  0.68892000  0.74124000  0.78816000  1.0 0.8590871756
Zn  Zn32  1  0.31108000  0.24124000  0.71184000  1.0 0.8590871756
H  H1  1  0.71240000  0.45810000  0.17330000  1.0 0.2953708535
H  H2  1  0.78760000  0.54190000  0.67330000  1.0 0.2953708535
H  H3  1  0.28760000  0.95810000  0.32670000  1.0 0.2953708535
H  H4  1  0.21240000  0.04190000  0.82670000  1.0 0.2953708535
H  H5  1  0.17330000  0.71240000  0.45810000  1.0 0.2953708535
H  H6  1  0.67330000  0.78760000  0.54190000  1.0 0.2953708535
H  H7  1  0.32670000  0.28760000  0.95810000  1.0 0.2953708535
H  H8  1  0.82670000  0.21240000  0.04190000  1.0 0.2953708535
H  H9  1  0.45810000  0.17330000  0.71240000  1.0 0.2953708535
H  H10  1  0.54190000  0.67330000  0.78760000  1.0 0.2953708535
H  H11  1  0.95810000  0.32670000  0.28760000  1.0 0.2953708535
H  H12  1  0.04190000  0.82670000  0.21240000  1.0 0.2953708535
H  H13  1  0.75080000  0.41630000  0.16020000  1.0 0.2818426853
H  H14  1  0.74920000  0.58370000  0.66020000  1.0 0.2818426853
H  H15  1  0.24920000  0.91630000  0.33980000  1.0 0.2818426853
H  H16  1  0.25080000  0.08370000  0.83980000  1.0 0.2818426853
H  H17  1  0.16020000  0.75080000  0.41630000  1.0 0.2818426853
H  H18  1  0.66020000  0.74920000  0.58370000  1.0 0.2818426853
H  H19  1  0.33980000  0.24920000  0.91630000  1.0 0.2818426853
H  H20  1  0.83980000  0.25080000  0.08370000  1.0 0.2818426853
H  H21  1  0.41630000  0.16020000  0.75080000  1.0 0.2818426853
H  H22  1  0.58370000  0.66020000  0.74920000  1.0 0.2818426853
H  H23  1  0.91630000  0.33980000  0.24920000  1.0 0.2818426853
H  H24  1  0.08370000  0.83980000  0.25080000  1.0 0.2818426853
H  H25  1  0.83190000  0.73070000  0.95640000  1.0 0.2942626541
H  H26  1  0.66810000  0.26930000  0.45640000  1.0 0.2942626541
H  H27  1  0.16810000  0.23070000  0.54360000  1.0 0.2942626541
H  H28  1  0.33190000  0.76930000  0.04360000  1.0 0.2942626541
H  H29  1  0.95640000  0.83190000  0.73070000  1.0 0.2942626541
H  H30  1  0.45640000  0.66810000  0.26930000  1.0 0.2942626541
H  H31  1  0.54360000  0.16810000  0.23070000  1.0 0.2942626541
H  H32  1  0.04360000  0.33190000  0.76930000  1.0 0.2942626541
H  H33  1  0.73070000  0.95640000  0.83190000  1.0 0.2942626541
H  H34  1  0.26930000  0.45640000  0.66810000  1.0 0.2942626541
H  H35  1  0.23070000  0.54360000  0.16810000  1.0 0.2942626541
H  H36  1  0.76930000  0.04360000  0.33190000  1.0 0.2942626541
H  H37  1  0.85400000  0.77260000  0.92250000  1.0 0.2818426853
H  H38  1  0.64600000  0.22740000  0.42250000  1.0 0.2818426853
H  H39  1  0.14600000  0.27260000  0.57750000  1.0 0.2818426853
H  H40  1  0.35400000  0.72740000  0.07750000  1.0 0.2818426853
H  H41  1  0.92250000  0.85400000  0.77260000  1.0 0.2818426853
H  H42  1  0.42250000  0.64600000  0.22740000  1.0 0.2818426853
H  H43  1  0.57750000  0.14600000  0.27260000  1.0 0.2818426853
H  H44  1  0.07750000  0.35400000  0.72740000  1.0 0.2818426853
H  H45  1  0.77260000  0.92250000  0.85400000  1.0 0.2818426853
H  H46  1  0.22740000  0.42250000  0.64600000  1.0 0.2818426853
H  H47  1  0.27260000  0.57750000  0.14600000  1.0 0.2818426853
H  H48  1  0.72740000  0.07750000  0.35400000  1.0 0.2818426853
H  H49  1  0.73850000  0.54200000  0.19900000  1.0 0.1234909957
H  H50  1  0.76150000  0.45800000  0.69900000  1.0 0.1234909957
H  H51  1  0.26150000  0.04200000  0.30100000  1.0 0.1234909957
H  H52  1  0.23850000  0.95800000  0.80100000  1.0 0.1234909957
H  H53  1  0.19900000  0.73850000  0.54200000  1.0 0.1234909957
H  H54  1  0.69900000  0.76150000  0.45800000  1.0 0.1234909957
H  H55  1  0.30100000  0.26150000  0.04200000  1.0 0.1234909957
H  H56  1  0.80100000  0.23850000  0.95800000  1.0 0.1234909957
H  H57  1  0.54200000  0.19900000  0.73850000  1.0 0.1234909957
H  H58  1  0.45800000  0.69900000  0.76150000  1.0 0.1234909957
H  H59  1  0.04200000  0.30100000  0.26150000  1.0 0.1234909957
H  H60  1  0.95800000  0.80100000  0.23850000  1.0 0.1234909957
H  H61  1  0.90960000  0.49320000  0.18730000  1.0 0.1124865599
H  H62  1  0.59040000  0.50680000  0.68730000  1.0 0.1124865599
H  H63  1  0.09040000  0.99320000  0.31270000  1.0 0.1124865599
H  H64  1  0.40960000  0.00680000  0.81270000  1.0 0.1124865599
H  H65  1  0.18730000  0.90960000  0.49320000  1.0 0.1124865599
H  H66  1  0.68730000  0.59040000  0.50680000  1.0 0.1124865599
H  H67  1  0.31270000  0.09040000  0.99320000  1.0 0.1124865599
H  H68  1  0.81270000  0.40960000  0.00680000  1.0 0.1124865599
H  H69  1  0.49320000  0.18730000  0.90960000  1.0 0.1124865599
H  H70  1  0.50680000  0.68730000  0.59040000  1.0 0.1124865599
H  H71  1  0.99320000  0.31270000  0.09040000  1.0 0.1124865599
H  H72  1  0.00680000  0.81270000  0.40960000  1.0 0.1124865599
H  H73  1  0.88880000  0.57330000  0.22160000  1.0 0.1124865599
H  H74  1  0.61120000  0.42670000  0.72160000  1.0 0.1124865599
H  H75  1  0.11120000  0.07330000  0.27840000  1.0 0.1124865599
H  H76  1  0.38880000  0.92670000  0.77840000  1.0 0.1124865599
H  H77  1  0.22160000  0.88880000  0.57330000  1.0 0.1124865599
H  H78  1  0.72160000  0.61120000  0.42670000  1.0 0.1124865599
H  H79  1  0.27840000  0.11120000  0.07330000  1.0 0.1124865599
H  H80  1  0.77840000  0.38880000  0.92670000  1.0 0.1124865599
H  H81  1  0.57330000  0.22160000  0.88880000  1.0 0.1124865599
H  H82  1  0.42670000  0.72160000  0.61120000  1.0 0.1124865599
H  H83  1  0.07330000  0.27840000  0.11120000  1.0 0.1124865599
H  H84  1  0.92670000  0.77840000  0.38880000  1.0 0.1124865599
H  H85  1  0.91340000  0.40380000  0.20100000  1.0 0.1036144355
H  H86  1  0.58660000  0.59620000  0.70100000  1.0 0.1036144355
H  H87  1  0.08660000  0.90380000  0.29900000  1.0 0.1036144355
H  H88  1  0.41340000  0.09620000  0.79900000  1.0 0.1036144355
H  H89  1  0.20100000  0.91340000  0.40380000  1.0 0.1036144355
H  H90  1  0.70100000  0.58660000  0.59620000  1.0 0.1036144355
H  H91  1  0.29900000  0.08660000  0.90380000  1.0 0.1036144355
H  H92  1  0.79900000  0.41340000  0.09620000  1.0 0.1036144355
H  H93  1  0.40380000  0.20100000  0.91340000  1.0 0.1036144355
H  H94  1  0.59620000  0.70100000  0.58660000  1.0 0.1036144355
H  H95  1  0.90380000  0.29900000  0.08660000  1.0 0.1036144355
H  H96  1  0.09620000  0.79900000  0.41340000  1.0 0.1036144355
H  H97  1  0.80240000  0.74720000  0.04230000  1.0 0.1287635257
H  H98  1  0.69760000  0.25280000  0.54230000  1.0 0.1287635257
H  H99  1  0.19760000  0.24720000  0.45770000  1.0 0.1287635257
H  H100  1  0.30240000  0.75280000  0.95770000  1.0 0.1287635257
H  H101  1  0.04230000  0.80240000  0.74720000  1.0 0.1287635257
H  H102  1  0.54230000  0.69760000  0.25280000  1.0 0.1287635257
H  H103  1  0.45770000  0.19760000  0.24720000  1.0 0.1287635257
H  H104  1  0.95770000  0.30240000  0.75280000  1.0 0.1287635257
H  H105  1  0.74720000  0.04230000  0.80240000  1.0 0.1287635257
H  H106  1  0.25280000  0.54230000  0.69760000  1.0 0.1287635257
H  H107  1  0.24720000  0.45770000  0.19760000  1.0 0.1287635257
H  H108  1  0.75280000  0.95770000  0.30240000  1.0 0.1287635257
H  H109  1  0.84910000  0.91900000  0.02360000  1.0 0.1124865599
H  H110  1  0.65090000  0.08100000  0.52360000  1.0 0.1124865599
H  H111  1  0.15090000  0.41900000  0.47640000  1.0 0.1124865599
H  H112  1  0.34910000  0.58100000  0.97640000  1.0 0.1124865599
H  H113  1  0.02360000  0.84910000  0.91900000  1.0 0.1124865599
H  H114  1  0.52360000  0.65090000  0.08100000  1.0 0.1124865599
H  H115  1  0.47640000  0.15090000  0.41900000  1.0 0.1124865599
H  H116  1  0.97640000  0.34910000  0.58100000  1.0 0.1124865599
H  H117  1  0.91900000  0.02360000  0.84910000  1.0 0.1124865599
H  H118  1  0.08100000  0.52360000  0.65090000  1.0 0.1124865599
H  H119  1  0.41900000  0.47640000  0.15090000  1.0 0.1124865599
H  H120  1  0.58100000  0.97640000  0.34910000  1.0 0.1124865599
H  H121  1  0.81510000  0.89060000  0.10100000  1.0 0.1124865599
H  H122  1  0.68490000  0.10940000  0.60100000  1.0 0.1124865599
H  H123  1  0.18490000  0.39060000  0.39900000  1.0 0.1124865599
H  H124  1  0.31510000  0.60940000  0.89900000  1.0 0.1124865599
H  H125  1  0.10100000  0.81510000  0.89060000  1.0 0.1124865599
H  H126  1  0.60100000  0.68490000  0.10940000  1.0 0.1124865599
H  H127  1  0.39900000  0.18490000  0.39060000  1.0 0.1124865599
H  H128  1  0.89900000  0.31510000  0.60940000  1.0 0.1124865599
H  H129  1  0.89060000  0.10100000  0.81510000  1.0 0.1124865599
H  H130  1  0.10940000  0.60100000  0.68490000  1.0 0.1124865599
H  H131  1  0.39060000  0.39900000  0.18490000  1.0 0.1124865599
H  H132  1  0.60940000  0.89900000  0.31510000  1.0 0.1124865599
H  H133  1  0.81940000  0.93040000  0.92870000  1.0 0.1124865599
H  H134  1  0.68060000  0.06960000  0.42870000  1.0 0.1124865599
H  H135  1  0.18060000  0.43040000  0.57130000  1.0 0.1124865599
H  H136  1  0.31940000  0.56960000  0.07130000  1.0 0.1124865599
H  H137  1  0.92870000  0.81940000  0.93040000  1.0 0.1124865599
H  H138  1  0.42870000  0.68060000  0.06960000  1.0 0.1124865599
H  H139  1  0.57130000  0.18060000  0.43040000  1.0 0.1124865599
H  H140  1  0.07130000  0.31940000  0.56960000  1.0 0.1124865599
H  H141  1  0.93040000  0.92870000  0.81940000  1.0 0.1124865599
H  H142  1  0.06960000  0.42870000  0.68060000  1.0 0.1124865599
H  H143  1  0.43040000  0.57130000  0.18060000  1.0 0.1124865599
H  H144  1  0.56960000  0.07130000  0.31940000  1.0 0.1124865599
H  H145  1  0.28760000  0.54190000  0.82670000  1.0 0.2953708535
H  H146  1  0.21240000  0.45810000  0.32670000  1.0 0.2953708535
H  H147  1  0.71240000  0.04190000  0.67330000  1.0 0.2953708535
H  H148  1  0.78760000  0.95810000  0.17330000  1.0 0.2953708535
H  H149  1  0.82670000  0.28760000  0.54190000  1.0 0.2953708535
H  H150  1  0.32670000  0.21240000  0.45810000  1.0 0.2953708535
H  H151  1  0.67330000  0.71240000  0.04190000  1.0 0.2953708535
H  H152  1  0.17330000  0.78760000  0.95810000  1.0 0.2953708535
H  H153  1  0.54190000  0.82670000  0.28760000  1.0 0.2953708535
H  H154  1  0.45810000  0.32670000  0.21240000  1.0 0.2953708535
H  H155  1  0.04190000  0.67330000  0.71240000  1.0 0.2953708535
H  H156  1  0.95810000  0.17330000  0.78760000  1.0 0.2953708535
H  H157  1  0.24920000  0.58370000  0.83980000  1.0 0.2818426853
H  H158  1  0.25080000  0.41630000  0.33980000  1.0 0.2818426853
H  H159  1  0.75080000  0.08370000  0.66020000  1.0 0.2818426853
H  H160  1  0.74920000  0.91630000  0.16020000  1.0 0.2818426853
H  H161  1  0.83980000  0.24920000  0.58370000  1.0 0.2818426853
H  H162  1  0.33980000  0.25080000  0.41630000  1.0 0.2818426853
H  H163  1  0.66020000  0.75080000  0.08370000  1.0 0.2818426853
H  H164  1  0.16020000  0.74920000  0.91630000  1.0 0.2818426853
H  H165  1  0.58370000  0.83980000  0.24920000  1.0 0.2818426853
H  H166  1  0.41630000  0.33980000  0.25080000  1.0 0.2818426853
H  H167  1  0.08370000  0.66020000  0.75080000  1.0 0.2818426853
H  H168  1  0.91630000  0.16020000  0.74920000  1.0 0.2818426853
H  H169  1  0.16810000  0.26930000  0.04360000  1.0 0.2942626541
H  H170  1  0.33190000  0.73070000  0.54360000  1.0 0.2942626541
H  H171  1  0.83190000  0.76930000  0.45640000  1.0 0.2942626541
H  H172  1  0.66810000  0.23070000  0.95640000  1.0 0.2942626541
H  H173  1  0.04360000  0.16810000  0.26930000  1.0 0.2942626541
H  H174  1  0.54360000  0.33190000  0.73070000  1.0 0.2942626541
H  H175  1  0.45640000  0.83190000  0.76930000  1.0 0.2942626541
H  H176  1  0.95640000  0.66810000  0.23070000  1.0 0.2942626541
H  H177  1  0.26930000  0.04360000  0.16810000  1.0 0.2942626541
H  H178  1  0.73070000  0.54360000  0.33190000  1.0 0.2942626541
H  H179  1  0.76930000  0.45640000  0.83190000  1.0 0.2942626541
H  H180  1  0.23070000  0.95640000  0.66810000  1.0 0.2942626541
H  H181  1  0.14600000  0.22740000  0.07750000  1.0 0.2818426853
H  H182  1  0.35400000  0.77260000  0.57750000  1.0 0.2818426853
H  H183  1  0.85400000  0.72740000  0.42250000  1.0 0.2818426853
H  H184  1  0.64600000  0.27260000  0.92250000  1.0 0.2818426853
H  H185  1  0.07750000  0.14600000  0.22740000  1.0 0.2818426853
H  H186  1  0.57750000  0.35400000  0.77260000  1.0 0.2818426853
H  H187  1  0.42250000  0.85400000  0.72740000  1.0 0.2818426853
H  H188  1  0.92250000  0.64600000  0.27260000  1.0 0.2818426853
H  H189  1  0.22740000  0.07750000  0.14600000  1.0 0.2818426853
H  H190  1  0.77260000  0.57750000  0.35400000  1.0 0.2818426853
H  H191  1  0.72740000  0.42250000  0.85400000  1.0 0.2818426853
H  H192  1  0.27260000  0.92250000  0.64600000  1.0 0.2818426853
H  H193  1  0.26150000  0.45800000  0.80100000  1.0 0.1234909957
H  H194  1  0.23850000  0.54200000  0.30100000  1.0 0.1234909957
H  H195  1  0.73850000  0.95800000  0.69900000  1.0 0.1234909957
H  H196  1  0.76150000  0.04200000  0.19900000  1.0 0.1234909957
H  H197  1  0.80100000  0.26150000  0.45800000  1.0 0.1234909957
H  H198  1  0.30100000  0.23850000  0.54200000  1.0 0.1234909957
H  H199  1  0.69900000  0.73850000  0.95800000  1.0 0.1234909957
H  H200  1  0.19900000  0.76150000  0.04200000  1.0 0.1234909957
H  H201  1  0.45800000  0.80100000  0.26150000  1.0 0.1234909957
H  H202  1  0.54200000  0.30100000  0.23850000  1.0 0.1234909957
H  H203  1  0.95800000  0.69900000  0.73850000  1.0 0.1234909957
H  H204  1  0.04200000  0.19900000  0.76150000  1.0 0.1234909957
H  H205  1  0.09040000  0.50680000  0.81270000  1.0 0.1124865599
H  H206  1  0.40960000  0.49320000  0.31270000  1.0 0.1124865599
H  H207  1  0.90960000  0.00680000  0.68730000  1.0 0.1124865599
H  H208  1  0.59040000  0.99320000  0.18730000  1.0 0.1124865599
H  H209  1  0.81270000  0.09040000  0.50680000  1.0 0.1124865599
H  H210  1  0.31270000  0.40960000  0.49320000  1.0 0.1124865599
H  H211  1  0.68730000  0.90960000  0.00680000  1.0 0.1124865599
H  H212  1  0.18730000  0.59040000  0.99320000  1.0 0.1124865599
H  H213  1  0.50680000  0.81270000  0.09040000  1.0 0.1124865599
H  H214  1  0.49320000  0.31270000  0.40960000  1.0 0.1124865599
H  H215  1  0.00680000  0.68730000  0.90960000  1.0 0.1124865599
H  H216  1  0.99320000  0.18730000  0.59040000  1.0 0.1124865599
H  H217  1  0.11120000  0.42670000  0.77840000  1.0 0.1124865599
H  H218  1  0.38880000  0.57330000  0.27840000  1.0 0.1124865599
H  H219  1  0.88880000  0.92670000  0.72160000  1.0 0.1124865599
H  H220  1  0.61120000  0.07330000  0.22160000  1.0 0.1124865599
H  H221  1  0.77840000  0.11120000  0.42670000  1.0 0.1124865599
H  H222  1  0.27840000  0.38880000  0.57330000  1.0 0.1124865599
H  H223  1  0.72160000  0.88880000  0.92670000  1.0 0.1124865599
H  H224  1  0.22160000  0.61120000  0.07330000  1.0 0.1124865599
H  H225  1  0.42670000  0.77840000  0.11120000  1.0 0.1124865599
H  H226  1  0.57330000  0.27840000  0.38880000  1.0 0.1124865599
H  H227  1  0.92670000  0.72160000  0.88880000  1.0 0.1124865599
H  H228  1  0.07330000  0.22160000  0.61120000  1.0 0.1124865599
H  H229  1  0.08660000  0.59620000  0.79900000  1.0 0.1036144355
H  H230  1  0.41340000  0.40380000  0.29900000  1.0 0.1036144355
H  H231  1  0.91340000  0.09620000  0.70100000  1.0 0.1036144355
H  H232  1  0.58660000  0.90380000  0.20100000  1.0 0.1036144355
H  H233  1  0.79900000  0.08660000  0.59620000  1.0 0.1036144355
H  H234  1  0.29900000  0.41340000  0.40380000  1.0 0.1036144355
H  H235  1  0.70100000  0.91340000  0.09620000  1.0 0.1036144355
H  H236  1  0.20100000  0.58660000  0.90380000  1.0 0.1036144355
H  H237  1  0.59620000  0.79900000  0.08660000  1.0 0.1036144355
H  H238  1  0.40380000  0.29900000  0.41340000  1.0 0.1036144355
H  H239  1  0.09620000  0.70100000  0.91340000  1.0 0.1036144355
H  H240  1  0.90380000  0.20100000  0.58660000  1.0 0.1036144355
H  H241  1  0.19760000  0.25280000  0.95770000  1.0 0.1287635257
H  H242  1  0.30240000  0.74720000  0.45770000  1.0 0.1287635257
H  H243  1  0.80240000  0.75280000  0.54230000  1.0 0.1287635257
H  H244  1  0.69760000  0.24720000  0.04230000  1.0 0.1287635257
H  H245  1  0.95770000  0.19760000  0.25280000  1.0 0.1287635257
H  H246  1  0.45770000  0.30240000  0.74720000  1.0 0.1287635257
H  H247  1  0.54230000  0.80240000  0.75280000  1.0 0.1287635257
H  H248  1  0.04230000  0.69760000  0.24720000  1.0 0.1287635257
H  H249  1  0.25280000  0.95770000  0.19760000  1.0 0.1287635257
H  H250  1  0.74720000  0.45770000  0.30240000  1.0 0.1287635257
H  H251  1  0.75280000  0.54230000  0.80240000  1.0 0.1287635257
H  H252  1  0.24720000  0.04230000  0.69760000  1.0 0.1287635257
H  H253  1  0.15090000  0.08100000  0.97640000  1.0 0.1124865599
H  H254  1  0.34910000  0.91900000  0.47640000  1.0 0.1124865599
H  H255  1  0.84910000  0.58100000  0.52360000  1.0 0.1124865599
H  H256  1  0.65090000  0.41900000  0.02360000  1.0 0.1124865599
H  H257  1  0.97640000  0.15090000  0.08100000  1.0 0.1124865599
H  H258  1  0.47640000  0.34910000  0.91900000  1.0 0.1124865599
H  H259  1  0.52360000  0.84910000  0.58100000  1.0 0.1124865599
H  H260  1  0.02360000  0.65090000  0.41900000  1.0 0.1124865599
H  H261  1  0.08100000  0.97640000  0.15090000  1.0 0.1124865599
H  H262  1  0.91900000  0.47640000  0.34910000  1.0 0.1124865599
H  H263  1  0.58100000  0.52360000  0.84910000  1.0 0.1124865599
H  H264  1  0.41900000  0.02360000  0.65090000  1.0 0.1124865599
H  H265  1  0.18490000  0.10940000  0.89900000  1.0 0.1124865599
H  H266  1  0.31510000  0.89060000  0.39900000  1.0 0.1124865599
H  H267  1  0.81510000  0.60940000  0.60100000  1.0 0.1124865599
H  H268  1  0.68490000  0.39060000  0.10100000  1.0 0.1124865599
H  H269  1  0.89900000  0.18490000  0.10940000  1.0 0.1124865599
H  H270  1  0.39900000  0.31510000  0.89060000  1.0 0.1124865599
H  H271  1  0.60100000  0.81510000  0.60940000  1.0 0.1124865599
H  H272  1  0.10100000  0.68490000  0.39060000  1.0 0.1124865599
H  H273  1  0.10940000  0.89900000  0.18490000  1.0 0.1124865599
H  H274  1  0.89060000  0.39900000  0.31510000  1.0 0.1124865599
H  H275  1  0.60940000  0.60100000  0.81510000  1.0 0.1124865599
H  H276  1  0.39060000  0.10100000  0.68490000  1.0 0.1124865599
H  H277  1  0.18060000  0.06960000  0.07130000  1.0 0.1124865599
H  H278  1  0.31940000  0.93040000  0.57130000  1.0 0.1124865599
H  H279  1  0.81940000  0.56960000  0.42870000  1.0 0.1124865599
H  H280  1  0.68060000  0.43040000  0.92870000  1.0 0.1124865599
H  H281  1  0.07130000  0.18060000  0.06960000  1.0 0.1124865599
H  H282  1  0.57130000  0.31940000  0.93040000  1.0 0.1124865599
H  H283  1  0.42870000  0.81940000  0.56960000  1.0 0.1124865599
H  H284  1  0.92870000  0.68060000  0.43040000  1.0 0.1124865599
H  H285  1  0.06960000  0.07130000  0.18060000  1.0 0.1124865599
H  H286  1  0.93040000  0.57130000  0.31940000  1.0 0.1124865599
H  H287  1  0.56960000  0.42870000  0.81940000  1.0 0.1124865599
H  H288  1  0.43040000  0.92870000  0.68060000  1.0 0.1124865599
C  C1  1  0.79687000  0.62008000  0.22667000  1.0 0.4534092611
C  C2  1  0.70313000  0.37992000  0.72667000  1.0 0.4534092611
C  C3  1  0.20313000  0.12008000  0.27333000  1.0 0.4534092611
C  C4  1  0.29687000  0.87992000  0.77333000  1.0 0.4534092611
C  C5  1  0.22667000  0.79687000  0.62008000  1.0 0.4534092611
C  C6  1  0.72667000  0.70313000  0.37992000  1.0 0.4534092611
C  C7  1  0.27333000  0.20313000  0.12008000  1.0 0.4534092611
C  C8  1  0.77333000  0.29687000  0.87992000  1.0 0.4534092611
C  C9  1  0.62008000  0.22667000  0.79687000  1.0 0.4534092611
C  C10  1  0.37992000  0.72667000  0.70313000  1.0 0.4534092611
C  C11  1  0.12008000  0.27333000  0.20313000  1.0 0.4534092611
C  C12  1  0.87992000  0.77333000  0.29687000  1.0 0.4534092611
C  C13  1  0.81148000  0.56596000  0.21186000  1.0 -0.0198906497
C  C14  1  0.68852000  0.43404000  0.71186000  1.0 -0.0198906497
C  C15  1  0.18852000  0.06596000  0.28814000  1.0 -0.0198906497
C  C16  1  0.31148000  0.93404000  0.78814000  1.0 -0.0198906497
C  C17  1  0.21186000  0.81148000  0.56596000  1.0 -0.0198906497
C  C18  1  0.71186000  0.68852000  0.43404000  1.0 -0.0198906497
C  C19  1  0.28814000  0.18852000  0.06596000  1.0 -0.0198906497
C  C20  1  0.78814000  0.31148000  0.93404000  1.0 -0.0198906497
C  C21  1  0.56596000  0.21186000  0.81148000  1.0 -0.0198906497
C  C22  1  0.43404000  0.71186000  0.68852000  1.0 -0.0198906497
C  C23  1  0.06596000  0.28814000  0.18852000  1.0 -0.0198906497
C  C24  1  0.93404000  0.78814000  0.31148000  1.0 -0.0198906497
C  C25  1  0.77321000  0.53132000  0.19769000  1.0 -0.2397677684
C  C26  1  0.72679000  0.46868000  0.69769000  1.0 -0.2397677684
C  C27  1  0.22679000  0.03132000  0.30231000  1.0 -0.2397677684
C  C28  1  0.27321000  0.96868000  0.80231000  1.0 -0.2397677684
C  C29  1  0.19769000  0.77321000  0.53132000  1.0 -0.2397677684
C  C30  1  0.69769000  0.72679000  0.46868000  1.0 -0.2397677684
C  C31  1  0.30231000  0.22679000  0.03132000  1.0 -0.2397677684
C  C32  1  0.80231000  0.27321000  0.96868000  1.0 -0.2397677684
C  C33  1  0.53132000  0.19769000  0.77321000  1.0 -0.2397677684
C  C34  1  0.46868000  0.69769000  0.72679000  1.0 -0.2397677684
C  C35  1  0.03132000  0.30231000  0.22679000  1.0 -0.2397677684
C  C36  1  0.96868000  0.80231000  0.27321000  1.0 -0.2397677684
C  C37  1  0.78450000  0.48108000  0.18154000  1.0 0.2434113389
C  C38  1  0.71550000  0.51892000  0.68154000  1.0 0.2434113389
C  C39  1  0.21550000  0.98108000  0.31846000  1.0 0.2434113389
C  C40  1  0.28450000  0.01892000  0.81846000  1.0 0.2434113389
C  C41  1  0.18154000  0.78450000  0.48108000  1.0 0.2434113389
C  C42  1  0.68154000  0.71550000  0.51892000  1.0 0.2434113389
C  C43  1  0.31846000  0.21550000  0.98108000  1.0 0.2434113389
C  C44  1  0.81846000  0.28450000  0.01892000  1.0 0.2434113389
C  C45  1  0.48108000  0.18154000  0.78450000  1.0 0.2434113389
C  C46  1  0.51892000  0.68154000  0.71550000  1.0 0.2434113389
C  C47  1  0.98108000  0.31846000  0.21550000  1.0 0.2434113389
C  C48  1  0.01892000  0.81846000  0.28450000  1.0 0.2434113389
C  C49  1  0.83672000  0.46695000  0.17564000  1.0 -0.0366577891
C  C50  1  0.66328000  0.53305000  0.67564000  1.0 -0.0366577891
C  C51  1  0.16328000  0.96695000  0.32436000  1.0 -0.0366577891
C  C52  1  0.33672000  0.03305000  0.82436000  1.0 -0.0366577891
C  C53  1  0.17564000  0.83672000  0.46695000  1.0 -0.0366577891
C  C54  1  0.67564000  0.66328000  0.53305000  1.0 -0.0366577891
C  C55  1  0.32436000  0.16328000  0.96695000  1.0 -0.0366577891
C  C56  1  0.82436000  0.33672000  0.03305000  1.0 -0.0366577891
C  C57  1  0.46695000  0.17564000  0.83672000  1.0 -0.0366577891
C  C58  1  0.53305000  0.67564000  0.66328000  1.0 -0.0366577891
C  C59  1  0.96695000  0.32436000  0.16328000  1.0 -0.0366577891
C  C60  1  0.03305000  0.82436000  0.33672000  1.0 -0.0366577891
C  C61  1  0.87463000  0.50249000  0.19054000  1.0 -0.1439426607
C  C62  1  0.62537000  0.49751000  0.69054000  1.0 -0.1439426607
C  C63  1  0.12537000  0.00249000  0.30946000  1.0 -0.1439426607
C  C64  1  0.37463000  0.99751000  0.80946000  1.0 -0.1439426607
C  C65  1  0.19054000  0.87463000  0.50249000  1.0 -0.1439426607
C  C66  1  0.69054000  0.62537000  0.49751000  1.0 -0.1439426607
C  C67  1  0.30946000  0.12537000  0.00249000  1.0 -0.1439426607
C  C68  1  0.80946000  0.37463000  0.99751000  1.0 -0.1439426607
C  C69  1  0.50249000  0.19054000  0.87463000  1.0 -0.1439426607
C  C70  1  0.49751000  0.69054000  0.62537000  1.0 -0.1439426607
C  C71  1  0.00249000  0.30946000  0.12537000  1.0 -0.1439426607
C  C72  1  0.99751000  0.80946000  0.37463000  1.0 -0.1439426607
C  C73  1  0.86257000  0.55106000  0.20998000  1.0 -0.150851843
C  C74  1  0.63743000  0.44894000  0.70998000  1.0 -0.150851843
C  C75  1  0.13743000  0.05106000  0.29002000  1.0 -0.150851843
C  C76  1  0.36257000  0.94894000  0.79002000  1.0 -0.150851843
C  C77  1  0.20998000  0.86257000  0.55106000  1.0 -0.150851843
C  C78  1  0.70998000  0.63743000  0.44894000  1.0 -0.150851843
C  C79  1  0.29002000  0.13743000  0.05106000  1.0 -0.150851843
C  C80  1  0.79002000  0.36257000  0.94894000  1.0 -0.150851843
C  C81  1  0.55106000  0.20998000  0.86257000  1.0 -0.150851843
C  C82  1  0.44894000  0.70998000  0.63743000  1.0 -0.150851843
C  C83  1  0.05106000  0.29002000  0.13743000  1.0 -0.150851843
C  C84  1  0.94894000  0.79002000  0.36257000  1.0 -0.150851843
C  C85  1  0.85317000  0.41674000  0.15260000  1.0 0.0933469077
C  C86  1  0.64683000  0.58326000  0.65260000  1.0 0.0933469077
C  C87  1  0.14683000  0.91674000  0.34740000  1.0 0.0933469077
C  C88  1  0.35317000  0.08326000  0.84740000  1.0 0.0933469077
C  C89  1  0.15260000  0.85317000  0.41674000  1.0 0.0933469077
C  C90  1  0.65260000  0.64683000  0.58326000  1.0 0.0933469077
C  C91  1  0.34740000  0.14683000  0.91674000  1.0 0.0933469077
C  C92  1  0.84740000  0.35317000  0.08326000  1.0 0.0933469077
C  C93  1  0.41674000  0.15260000  0.85317000  1.0 0.0933469077
C  C94  1  0.58326000  0.65260000  0.64683000  1.0 0.0933469077
C  C95  1  0.91674000  0.34740000  0.14683000  1.0 0.0933469077
C  C96  1  0.08326000  0.84740000  0.35317000  1.0 0.0933469077
C  C97  1  0.89688000  0.39120000  0.17125000  1.0 -0.2178492776
C  C98  1  0.60312000  0.60880000  0.67125000  1.0 -0.2178492776
C  C99  1  0.10312000  0.89120000  0.32875000  1.0 -0.2178492776
C  C100  1  0.39688000  0.10880000  0.82875000  1.0 -0.2178492776
C  C101  1  0.17125000  0.89688000  0.39120000  1.0 -0.2178492776
C  C102  1  0.67125000  0.60312000  0.60880000  1.0 -0.2178492776
C  C103  1  0.32875000  0.10312000  0.89120000  1.0 -0.2178492776
C  C104  1  0.82875000  0.39688000  0.10880000  1.0 -0.2178492776
C  C105  1  0.39120000  0.17125000  0.89688000  1.0 -0.2178492776
C  C106  1  0.60880000  0.67125000  0.60312000  1.0 -0.2178492776
C  C107  1  0.89120000  0.32875000  0.10312000  1.0 -0.2178492776
C  C108  1  0.10880000  0.82875000  0.39688000  1.0 -0.2178492776
C  C109  1  0.78678000  0.79651000  0.13019000  1.0 0.5988062685
C  C110  1  0.71322000  0.20349000  0.63019000  1.0 0.5988062685
C  C111  1  0.21322000  0.29651000  0.36981000  1.0 0.5988062685
C  C112  1  0.28678000  0.70349000  0.86981000  1.0 0.5988062685
C  C113  1  0.13019000  0.78678000  0.79651000  1.0 0.5988062685
C  C114  1  0.63019000  0.71322000  0.20349000  1.0 0.5988062685
C  C115  1  0.36981000  0.21322000  0.29651000  1.0 0.5988062685
C  C116  1  0.86981000  0.28678000  0.70349000  1.0 0.5988062685
C  C117  1  0.79651000  0.13019000  0.78678000  1.0 0.5988062685
C  C118  1  0.20349000  0.63019000  0.71322000  1.0 0.5988062685
C  C119  1  0.29651000  0.36981000  0.21322000  1.0 0.5988062685
C  C120  1  0.70349000  0.86981000  0.28678000  1.0 0.5988062685
C  C121  1  0.80695000  0.81558000  0.07903000  1.0 -0.0198906497
C  C122  1  0.69305000  0.18442000  0.57903000  1.0 -0.0198906497
C  C123  1  0.19305000  0.31558000  0.42097000  1.0 -0.0198906497
C  C124  1  0.30695000  0.68442000  0.92097000  1.0 -0.0198906497
C  C125  1  0.07903000  0.80695000  0.81558000  1.0 -0.0198906497
C  C126  1  0.57903000  0.69305000  0.18442000  1.0 -0.0198906497
C  C127  1  0.42097000  0.19305000  0.31558000  1.0 -0.0198906497
C  C128  1  0.92097000  0.30695000  0.68442000  1.0 -0.0198906497
C  C129  1  0.81558000  0.07903000  0.80695000  1.0 -0.0198906497
C  C130  1  0.18442000  0.57903000  0.69305000  1.0 -0.0198906497
C  C131  1  0.31558000  0.42097000  0.19305000  1.0 -0.0198906497
C  C132  1  0.68442000  0.92097000  0.30695000  1.0 -0.0198906497
C  C133  1  0.81281000  0.78182000  0.03850000  1.0 -0.2178492776
C  C134  1  0.68719000  0.21818000  0.53850000  1.0 -0.2178492776
C  C135  1  0.18719000  0.28182000  0.46150000  1.0 -0.2178492776
C  C136  1  0.31281000  0.71818000  0.96150000  1.0 -0.2178492776
C  C137  1  0.03850000  0.81281000  0.78182000  1.0 -0.2178492776
C  C138  1  0.53850000  0.68719000  0.21818000  1.0 -0.2178492776
C  C139  1  0.46150000  0.18719000  0.28182000  1.0 -0.2178492776
C  C140  1  0.96150000  0.31281000  0.71818000  1.0 -0.2178492776
C  C141  1  0.78182000  0.03850000  0.81281000  1.0 -0.2178492776
C  C142  1  0.21818000  0.53850000  0.68719000  1.0 -0.2178492776
C  C143  1  0.28182000  0.46150000  0.18719000  1.0 -0.2178492776
C  C144  1  0.71818000  0.96150000  0.31281000  1.0 -0.2178492776
C  C145  1  0.83413000  0.79840000  0.99136000  1.0 0.2312458074
C  C146  1  0.66587000  0.20160000  0.49136000  1.0 0.2312458074
C  C147  1  0.16587000  0.29840000  0.50864000  1.0 0.2312458074
C  C148  1  0.33413000  0.70160000  0.00864000  1.0 0.2312458074
C  C149  1  0.99136000  0.83413000  0.79840000  1.0 0.2312458074
C  C150  1  0.49136000  0.66587000  0.20160000  1.0 0.2312458074
C  C151  1  0.50864000  0.16587000  0.29840000  1.0 0.2312458074
C  C152  1  0.00864000  0.33413000  0.70160000  1.0 0.2312458074
C  C153  1  0.79840000  0.99136000  0.83413000  1.0 0.2312458074
C  C154  1  0.20160000  0.49136000  0.66587000  1.0 0.2312458074
C  C155  1  0.29840000  0.50864000  0.16587000  1.0 0.2312458074
C  C156  1  0.70160000  0.00864000  0.33413000  1.0 0.2312458074
C  C157  1  0.84781000  0.85039000  0.98580000  1.0 -0.0366577891
C  C158  1  0.65219000  0.14961000  0.48580000  1.0 -0.0366577891
C  C159  1  0.15219000  0.35039000  0.51420000  1.0 -0.0366577891
C  C160  1  0.34781000  0.64961000  0.01420000  1.0 -0.0366577891
C  C161  1  0.98580000  0.84781000  0.85039000  1.0 -0.0366577891
C  C162  1  0.48580000  0.65219000  0.14961000  1.0 -0.0366577891
C  C163  1  0.51420000  0.15219000  0.35039000  1.0 -0.0366577891
C  C164  1  0.01420000  0.34781000  0.64961000  1.0 -0.0366577891
C  C165  1  0.85039000  0.98580000  0.84781000  1.0 -0.0366577891
C  C166  1  0.14961000  0.48580000  0.65219000  1.0 -0.0366577891
C  C167  1  0.35039000  0.51420000  0.15219000  1.0 -0.0366577891
C  C168  1  0.64961000  0.01420000  0.34781000  1.0 -0.0366577891
C  C169  1  0.84019000  0.88400000  0.02736000  1.0 -0.1439426607
C  C170  1  0.65981000  0.11600000  0.52736000  1.0 -0.1439426607
C  C171  1  0.15981000  0.38400000  0.47264000  1.0 -0.1439426607
C  C172  1  0.34019000  0.61600000  0.97264000  1.0 -0.1439426607
C  C173  1  0.02736000  0.84019000  0.88400000  1.0 -0.1439426607
C  C174  1  0.52736000  0.65981000  0.11600000  1.0 -0.1439426607
C  C175  1  0.47264000  0.15981000  0.38400000  1.0 -0.1439426607
C  C176  1  0.97264000  0.34019000  0.61600000  1.0 -0.1439426607
C  C177  1  0.88400000  0.02736000  0.84019000  1.0 -0.1439426607
C  C178  1  0.11600000  0.52736000  0.65981000  1.0 -0.1439426607
C  C179  1  0.38400000  0.47264000  0.15981000  1.0 -0.1439426607
C  C180  1  0.61600000  0.97264000  0.34019000  1.0 -0.1439426607
C  C181  1  0.82001000  0.86736000  0.07353000  1.0 -0.150851843
C  C182  1  0.67999000  0.13264000  0.57353000  1.0 -0.150851843
C  C183  1  0.17999000  0.36736000  0.42647000  1.0 -0.150851843
C  C184  1  0.32001000  0.63264000  0.92647000  1.0 -0.150851843
C  C185  1  0.07353000  0.82001000  0.86736000  1.0 -0.150851843
C  C186  1  0.57353000  0.67999000  0.13264000  1.0 -0.150851843
C  C187  1  0.42647000  0.17999000  0.36736000  1.0 -0.150851843
C  C188  1  0.92647000  0.32001000  0.63264000  1.0 -0.150851843
C  C189  1  0.86736000  0.07353000  0.82001000  1.0 -0.150851843
C  C190  1  0.13264000  0.57353000  0.67999000  1.0 -0.150851843
C  C191  1  0.36736000  0.42647000  0.17999000  1.0 -0.150851843
C  C192  1  0.63264000  0.92647000  0.32001000  1.0 -0.150851843
C  C193  1  0.87016000  0.87111000  0.93709000  1.0 0.1036144355
C  C194  1  0.62984000  0.12889000  0.43709000  1.0 0.1036144355
C  C195  1  0.12984000  0.37111000  0.56291000  1.0 0.1036144355
C  C196  1  0.37016000  0.62889000  0.06291000  1.0 0.1036144355
C  C197  1  0.93709000  0.87016000  0.87111000  1.0 0.1036144355
C  C198  1  0.43709000  0.62984000  0.12889000  1.0 0.1036144355
C  C199  1  0.56291000  0.12984000  0.37111000  1.0 0.1036144355
C  C200  1  0.06291000  0.37016000  0.62889000  1.0 0.1036144355
C  C201  1  0.87111000  0.93709000  0.87016000  1.0 0.1036144355
C  C202  1  0.12889000  0.43709000  0.62984000  1.0 0.1036144355
C  C203  1  0.37111000  0.56291000  0.12984000  1.0 0.1036144355
C  C204  1  0.62889000  0.06291000  0.37016000  1.0 0.1036144355
C  C205  1  0.84901000  0.91523000  0.91420000  1.0 -0.2061469043
C  C206  1  0.65099000  0.08477000  0.41420000  1.0 -0.2061469043
C  C207  1  0.15099000  0.41523000  0.58580000  1.0 -0.2061469043
C  C208  1  0.34901000  0.58477000  0.08580000  1.0 -0.2061469043
C  C209  1  0.91420000  0.84901000  0.91523000  1.0 -0.2061469043
C  C210  1  0.41420000  0.65099000  0.08477000  1.0 -0.2061469043
C  C211  1  0.58580000  0.15099000  0.41523000  1.0 -0.2061469043
C  C212  1  0.08580000  0.34901000  0.58477000  1.0 -0.2061469043
C  C213  1  0.91523000  0.91420000  0.84901000  1.0 -0.2061469043
C  C214  1  0.08477000  0.41420000  0.65099000  1.0 -0.2061469043
C  C215  1  0.41523000  0.58580000  0.15099000  1.0 -0.2061469043
C  C216  1  0.58477000  0.08580000  0.34901000  1.0 -0.2061469043
C  C217  1  0.20313000  0.37992000  0.77333000  1.0 0.4534092611
C  C218  1  0.29687000  0.62008000  0.27333000  1.0 0.4534092611
C  C219  1  0.79687000  0.87992000  0.72667000  1.0 0.4534092611
C  C220  1  0.70313000  0.12008000  0.22667000  1.0 0.4534092611
C  C221  1  0.77333000  0.20313000  0.37992000  1.0 0.4534092611
C  C222  1  0.27333000  0.29687000  0.62008000  1.0 0.4534092611
C  C223  1  0.72667000  0.79687000  0.87992000  1.0 0.4534092611
C  C224  1  0.22667000  0.70313000  0.12008000  1.0 0.4534092611
C  C225  1  0.37992000  0.77333000  0.20313000  1.0 0.4534092611
C  C226  1  0.62008000  0.27333000  0.29687000  1.0 0.4534092611
C  C227  1  0.87992000  0.72667000  0.79687000  1.0 0.4534092611
C  C228  1  0.12008000  0.22667000  0.70313000  1.0 0.4534092611
C  C229  1  0.18852000  0.43404000  0.78814000  1.0 -0.0198906497
C  C230  1  0.31148000  0.56596000  0.28814000  1.0 -0.0198906497
C  C231  1  0.81148000  0.93404000  0.71186000  1.0 -0.0198906497
C  C232  1  0.68852000  0.06596000  0.21186000  1.0 -0.0198906497
C  C233  1  0.78814000  0.18852000  0.43404000  1.0 -0.0198906497
C  C234  1  0.28814000  0.31148000  0.56596000  1.0 -0.0198906497
C  C235  1  0.71186000  0.81148000  0.93404000  1.0 -0.0198906497
C  C236  1  0.21186000  0.68852000  0.06596000  1.0 -0.0198906497
C  C237  1  0.43404000  0.78814000  0.18852000  1.0 -0.0198906497
C  C238  1  0.56596000  0.28814000  0.31148000  1.0 -0.0198906497
C  C239  1  0.93404000  0.71186000  0.81148000  1.0 -0.0198906497
C  C240  1  0.06596000  0.21186000  0.68852000  1.0 -0.0198906497
C  C241  1  0.22679000  0.46868000  0.80231000  1.0 -0.2397677684
C  C242  1  0.27321000  0.53132000  0.30231000  1.0 -0.2397677684
C  C243  1  0.77321000  0.96868000  0.69769000  1.0 -0.2397677684
C  C244  1  0.72679000  0.03132000  0.19769000  1.0 -0.2397677684
C  C245  1  0.80231000  0.22679000  0.46868000  1.0 -0.2397677684
C  C246  1  0.30231000  0.27321000  0.53132000  1.0 -0.2397677684
C  C247  1  0.69769000  0.77321000  0.96868000  1.0 -0.2397677684
C  C248  1  0.19769000  0.72679000  0.03132000  1.0 -0.2397677684
C  C249  1  0.46868000  0.80231000  0.22679000  1.0 -0.2397677684
C  C250  1  0.53132000  0.30231000  0.27321000  1.0 -0.2397677684
C  C251  1  0.96868000  0.69769000  0.77321000  1.0 -0.2397677684
C  C252  1  0.03132000  0.19769000  0.72679000  1.0 -0.2397677684
C  C253  1  0.21550000  0.51892000  0.81846000  1.0 0.2434113389
C  C254  1  0.28450000  0.48108000  0.31846000  1.0 0.2434113389
C  C255  1  0.78450000  0.01892000  0.68154000  1.0 0.2434113389
C  C256  1  0.71550000  0.98108000  0.18154000  1.0 0.2434113389
C  C257  1  0.81846000  0.21550000  0.51892000  1.0 0.2434113389
C  C258  1  0.31846000  0.28450000  0.48108000  1.0 0.2434113389
C  C259  1  0.68154000  0.78450000  0.01892000  1.0 0.2434113389
C  C260  1  0.18154000  0.71550000  0.98108000  1.0 0.2434113389
C  C261  1  0.51892000  0.81846000  0.21550000  1.0 0.2434113389
C  C262  1  0.48108000  0.31846000  0.28450000  1.0 0.2434113389
C  C263  1  0.01892000  0.68154000  0.78450000  1.0 0.2434113389
C  C264  1  0.98108000  0.18154000  0.71550000  1.0 0.2434113389
C  C265  1  0.16328000  0.53305000  0.82436000  1.0 -0.0366577891
C  C266  1  0.33672000  0.46695000  0.32436000  1.0 -0.0366577891
C  C267  1  0.83672000  0.03305000  0.67564000  1.0 -0.0366577891
C  C268  1  0.66328000  0.96695000  0.17564000  1.0 -0.0366577891
C  C269  1  0.82436000  0.16328000  0.53305000  1.0 -0.0366577891
C  C270  1  0.32436000  0.33672000  0.46695000  1.0 -0.0366577891
C  C271  1  0.67564000  0.83672000  0.03305000  1.0 -0.0366577891
C  C272  1  0.17564000  0.66328000  0.96695000  1.0 -0.0366577891
C  C273  1  0.53305000  0.82436000  0.16328000  1.0 -0.0366577891
C  C274  1  0.46695000  0.32436000  0.33672000  1.0 -0.0366577891
C  C275  1  0.03305000  0.67564000  0.83672000  1.0 -0.0366577891
C  C276  1  0.96695000  0.17564000  0.66328000  1.0 -0.0366577891
C  C277  1  0.12537000  0.49751000  0.80946000  1.0 -0.1439426607
C  C278  1  0.37463000  0.50249000  0.30946000  1.0 -0.1439426607
C  C279  1  0.87463000  0.99751000  0.69054000  1.0 -0.1439426607
C  C280  1  0.62537000  0.00249000  0.19054000  1.0 -0.1439426607
C  C281  1  0.80946000  0.12537000  0.49751000  1.0 -0.1439426607
C  C282  1  0.30946000  0.37463000  0.50249000  1.0 -0.1439426607
C  C283  1  0.69054000  0.87463000  0.99751000  1.0 -0.1439426607
C  C284  1  0.19054000  0.62537000  0.00249000  1.0 -0.1439426607
C  C285  1  0.49751000  0.80946000  0.12537000  1.0 -0.1439426607
C  C286  1  0.50249000  0.30946000  0.37463000  1.0 -0.1439426607
C  C287  1  0.99751000  0.69054000  0.87463000  1.0 -0.1439426607
C  C288  1  0.00249000  0.19054000  0.62537000  1.0 -0.1439426607
C  C289  1  0.13743000  0.44894000  0.79002000  1.0 -0.150851843
C  C290  1  0.36257000  0.55106000  0.29002000  1.0 -0.150851843
C  C291  1  0.86257000  0.94894000  0.70998000  1.0 -0.150851843
C  C292  1  0.63743000  0.05106000  0.20998000  1.0 -0.150851843
C  C293  1  0.79002000  0.13743000  0.44894000  1.0 -0.150851843
C  C294  1  0.29002000  0.36257000  0.55106000  1.0 -0.150851843
C  C295  1  0.70998000  0.86257000  0.94894000  1.0 -0.150851843
C  C296  1  0.20998000  0.63743000  0.05106000  1.0 -0.150851843
C  C297  1  0.44894000  0.79002000  0.13743000  1.0 -0.150851843
C  C298  1  0.55106000  0.29002000  0.36257000  1.0 -0.150851843
C  C299  1  0.94894000  0.70998000  0.86257000  1.0 -0.150851843
C  C300  1  0.05106000  0.20998000  0.63743000  1.0 -0.150851843
C  C301  1  0.14683000  0.58326000  0.84740000  1.0 0.0933469077
C  C302  1  0.35317000  0.41674000  0.34740000  1.0 0.0933469077
C  C303  1  0.85317000  0.08326000  0.65260000  1.0 0.0933469077
C  C304  1  0.64683000  0.91674000  0.15260000  1.0 0.0933469077
C  C305  1  0.84740000  0.14683000  0.58326000  1.0 0.0933469077
C  C306  1  0.34740000  0.35317000  0.41674000  1.0 0.0933469077
C  C307  1  0.65260000  0.85317000  0.08326000  1.0 0.0933469077
C  C308  1  0.15260000  0.64683000  0.91674000  1.0 0.0933469077
C  C309  1  0.58326000  0.84740000  0.14683000  1.0 0.0933469077
C  C310  1  0.41674000  0.34740000  0.35317000  1.0 0.0933469077
C  C311  1  0.08326000  0.65260000  0.85317000  1.0 0.0933469077
C  C312  1  0.91674000  0.15260000  0.64683000  1.0 0.0933469077
C  C313  1  0.10312000  0.60880000  0.82875000  1.0 -0.2178492776
C  C314  1  0.39688000  0.39120000  0.32875000  1.0 -0.2178492776
C  C315  1  0.89688000  0.10880000  0.67125000  1.0 -0.2178492776
C  C316  1  0.60312000  0.89120000  0.17125000  1.0 -0.2178492776
C  C317  1  0.82875000  0.10312000  0.60880000  1.0 -0.2178492776
C  C318  1  0.32875000  0.39688000  0.39120000  1.0 -0.2178492776
C  C319  1  0.67125000  0.89688000  0.10880000  1.0 -0.2178492776
C  C320  1  0.17125000  0.60312000  0.89120000  1.0 -0.2178492776
C  C321  1  0.60880000  0.82875000  0.10312000  1.0 -0.2178492776
C  C322  1  0.39120000  0.32875000  0.39688000  1.0 -0.2178492776
C  C323  1  0.10880000  0.67125000  0.89688000  1.0 -0.2178492776
C  C324  1  0.89120000  0.17125000  0.60312000  1.0 -0.2178492776
C  C325  1  0.21322000  0.20349000  0.86981000  1.0 0.5988062685
C  C326  1  0.28678000  0.79651000  0.36981000  1.0 0.5988062685
C  C327  1  0.78678000  0.70349000  0.63019000  1.0 0.5988062685
C  C328  1  0.71322000  0.29651000  0.13019000  1.0 0.5988062685
C  C329  1  0.86981000  0.21322000  0.20349000  1.0 0.5988062685
C  C330  1  0.36981000  0.28678000  0.79651000  1.0 0.5988062685
C  C331  1  0.63019000  0.78678000  0.70349000  1.0 0.5988062685
C  C332  1  0.13019000  0.71322000  0.29651000  1.0 0.5988062685
C  C333  1  0.20349000  0.86981000  0.21322000  1.0 0.5988062685
C  C334  1  0.79651000  0.36981000  0.28678000  1.0 0.5988062685
C  C335  1  0.70349000  0.63019000  0.78678000  1.0 0.5988062685
C  C336  1  0.29651000  0.13019000  0.71322000  1.0 0.5988062685
C  C337  1  0.19305000  0.18442000  0.92097000  1.0 -0.0198906497
C  C338  1  0.30695000  0.81558000  0.42097000  1.0 -0.0198906497
C  C339  1  0.80695000  0.68442000  0.57903000  1.0 -0.0198906497
C  C340  1  0.69305000  0.31558000  0.07903000  1.0 -0.0198906497
C  C341  1  0.92097000  0.19305000  0.18442000  1.0 -0.0198906497
C  C342  1  0.42097000  0.30695000  0.81558000  1.0 -0.0198906497
C  C343  1  0.57903000  0.80695000  0.68442000  1.0 -0.0198906497
C  C344  1  0.07903000  0.69305000  0.31558000  1.0 -0.0198906497
C  C345  1  0.18442000  0.92097000  0.19305000  1.0 -0.0198906497
C  C346  1  0.81558000  0.42097000  0.30695000  1.0 -0.0198906497
C  C347  1  0.68442000  0.57903000  0.80695000  1.0 -0.0198906497
C  C348  1  0.31558000  0.07903000  0.69305000  1.0 -0.0198906497
C  C349  1  0.18719000  0.21818000  0.96150000  1.0 -0.2178492776
C  C350  1  0.31281000  0.78182000  0.46150000  1.0 -0.2178492776
C  C351  1  0.81281000  0.71818000  0.53850000  1.0 -0.2178492776
C  C352  1  0.68719000  0.28182000  0.03850000  1.0 -0.2178492776
C  C353  1  0.96150000  0.18719000  0.21818000  1.0 -0.2178492776
C  C354  1  0.46150000  0.31281000  0.78182000  1.0 -0.2178492776
C  C355  1  0.53850000  0.81281000  0.71818000  1.0 -0.2178492776
C  C356  1  0.03850000  0.68719000  0.28182000  1.0 -0.2178492776
C  C357  1  0.21818000  0.96150000  0.18719000  1.0 -0.2178492776
C  C358  1  0.78182000  0.46150000  0.31281000  1.0 -0.2178492776
C  C359  1  0.71818000  0.53850000  0.81281000  1.0 -0.2178492776
C  C360  1  0.28182000  0.03850000  0.68719000  1.0 -0.2178492776
C  C361  1  0.16587000  0.20160000  0.00864000  1.0 0.2312458074
C  C362  1  0.33413000  0.79840000  0.50864000  1.0 0.2312458074
C  C363  1  0.83413000  0.70160000  0.49136000  1.0 0.2312458074
C  C364  1  0.66587000  0.29840000  0.99136000  1.0 0.2312458074
C  C365  1  0.00864000  0.16587000  0.20160000  1.0 0.2312458074
C  C366  1  0.50864000  0.33413000  0.79840000  1.0 0.2312458074
C  C367  1  0.49136000  0.83413000  0.70160000  1.0 0.2312458074
C  C368  1  0.99136000  0.66587000  0.29840000  1.0 0.2312458074
C  C369  1  0.20160000  0.00864000  0.16587000  1.0 0.2312458074
C  C370  1  0.79840000  0.50864000  0.33413000  1.0 0.2312458074
C  C371  1  0.70160000  0.49136000  0.83413000  1.0 0.2312458074
C  C372  1  0.29840000  0.99136000  0.66587000  1.0 0.2312458074
C  C373  1  0.15219000  0.14961000  0.01420000  1.0 -0.0366577891
C  C374  1  0.34781000  0.85039000  0.51420000  1.0 -0.0366577891
C  C375  1  0.84781000  0.64961000  0.48580000  1.0 -0.0366577891
C  C376  1  0.65219000  0.35039000  0.98580000  1.0 -0.0366577891
C  C377  1  0.01420000  0.15219000  0.14961000  1.0 -0.0366577891
C  C378  1  0.51420000  0.34781000  0.85039000  1.0 -0.0366577891
C  C379  1  0.48580000  0.84781000  0.64961000  1.0 -0.0366577891
C  C380  1  0.98580000  0.65219000  0.35039000  1.0 -0.0366577891
C  C381  1  0.14961000  0.01420000  0.15219000  1.0 -0.0366577891
C  C382  1  0.85039000  0.51420000  0.34781000  1.0 -0.0366577891
C  C383  1  0.64961000  0.48580000  0.84781000  1.0 -0.0366577891
C  C384  1  0.35039000  0.98580000  0.65219000  1.0 -0.0366577891
C  C385  1  0.15981000  0.11600000  0.97264000  1.0 -0.1439426607
C  C386  1  0.34019000  0.88400000  0.47264000  1.0 -0.1439426607
C  C387  1  0.84019000  0.61600000  0.52736000  1.0 -0.1439426607
C  C388  1  0.65981000  0.38400000  0.02736000  1.0 -0.1439426607
C  C389  1  0.97264000  0.15981000  0.11600000  1.0 -0.1439426607
C  C390  1  0.47264000  0.34019000  0.88400000  1.0 -0.1439426607
C  C391  1  0.52736000  0.84019000  0.61600000  1.0 -0.1439426607
C  C392  1  0.02736000  0.65981000  0.38400000  1.0 -0.1439426607
C  C393  1  0.11600000  0.97264000  0.15981000  1.0 -0.1439426607
C  C394  1  0.88400000  0.47264000  0.34019000  1.0 -0.1439426607
C  C395  1  0.61600000  0.52736000  0.84019000  1.0 -0.1439426607
C  C396  1  0.38400000  0.02736000  0.65981000  1.0 -0.1439426607
C  C397  1  0.17999000  0.13264000  0.92647000  1.0 -0.150851843
C  C398  1  0.32001000  0.86736000  0.42647000  1.0 -0.150851843
C  C399  1  0.82001000  0.63264000  0.57353000  1.0 -0.150851843
C  C400  1  0.67999000  0.36736000  0.07353000  1.0 -0.150851843
C  C401  1  0.92647000  0.17999000  0.13264000  1.0 -0.150851843
C  C402  1  0.42647000  0.32001000  0.86736000  1.0 -0.150851843
C  C403  1  0.57353000  0.82001000  0.63264000  1.0 -0.150851843
C  C404  1  0.07353000  0.67999000  0.36736000  1.0 -0.150851843
C  C405  1  0.13264000  0.92647000  0.17999000  1.0 -0.150851843
C  C406  1  0.86736000  0.42647000  0.32001000  1.0 -0.150851843
C  C407  1  0.63264000  0.57353000  0.82001000  1.0 -0.150851843
C  C408  1  0.36736000  0.07353000  0.67999000  1.0 -0.150851843
C  C409  1  0.12984000  0.12889000  0.06291000  1.0 0.1036144355
C  C410  1  0.37016000  0.87111000  0.56291000  1.0 0.1036144355
C  C411  1  0.87016000  0.62889000  0.43709000  1.0 0.1036144355
C  C412  1  0.62984000  0.37111000  0.93709000  1.0 0.1036144355
C  C413  1  0.06291000  0.12984000  0.12889000  1.0 0.1036144355
C  C414  1  0.56291000  0.37016000  0.87111000  1.0 0.1036144355
C  C415  1  0.43709000  0.87016000  0.62889000  1.0 0.1036144355
C  C416  1  0.93709000  0.62984000  0.37111000  1.0 0.1036144355
C  C417  1  0.12889000  0.06291000  0.12984000  1.0 0.1036144355
C  C418  1  0.87111000  0.56291000  0.37016000  1.0 0.1036144355
C  C419  1  0.62889000  0.43709000  0.87016000  1.0 0.1036144355
C  C420  1  0.37111000  0.93709000  0.62984000  1.0 0.1036144355
C  C421  1  0.15099000  0.08477000  0.08580000  1.0 -0.2061469043
C  C422  1  0.34901000  0.91523000  0.58580000  1.0 -0.2061469043
C  C423  1  0.84901000  0.58477000  0.41420000  1.0 -0.2061469043
C  C424  1  0.65099000  0.41523000  0.91420000  1.0 -0.2061469043
C  C425  1  0.08580000  0.15099000  0.08477000  1.0 -0.2061469043
C  C426  1  0.58580000  0.34901000  0.91523000  1.0 -0.2061469043
C  C427  1  0.41420000  0.84901000  0.58477000  1.0 -0.2061469043
C  C428  1  0.91420000  0.65099000  0.41523000  1.0 -0.2061469043
C  C429  1  0.08477000  0.08580000  0.15099000  1.0 -0.2061469043
C  C430  1  0.91523000  0.58580000  0.34901000  1.0 -0.2061469043
C  C431  1  0.58477000  0.41420000  0.84901000  1.0 -0.2061469043
C  C432  1  0.41523000  0.91420000  0.65099000  1.0 -0.2061469043
N  N1  1  0.74425000  0.44769000  0.17028000  1.0 -0.5838779419
N  N2  1  0.75575000  0.55231000  0.67028000  1.0 -0.5838779419
N  N3  1  0.25575000  0.94769000  0.32972000  1.0 -0.5838779419
N  N4  1  0.24425000  0.05231000  0.82972000  1.0 -0.5838779419
N  N5  1  0.17028000  0.74425000  0.44769000  1.0 -0.5838779419
N  N6  1  0.67028000  0.75575000  0.55231000  1.0 -0.5838779419
N  N7  1  0.32972000  0.25575000  0.94769000  1.0 -0.5838779419
N  N8  1  0.82972000  0.24425000  0.05231000  1.0 -0.5838779419
N  N9  1  0.44769000  0.17028000  0.74425000  1.0 -0.5838779419
N  N10  1  0.55231000  0.67028000  0.75575000  1.0 -0.5838779419
N  N11  1  0.94769000  0.32972000  0.25575000  1.0 -0.5838779419
N  N12  1  0.05231000  0.82972000  0.24425000  1.0 -0.5838779419
N  N13  1  0.84081000  0.76281000  0.95186000  1.0 -0.586328649
N  N14  1  0.65919000  0.23719000  0.45186000  1.0 -0.586328649
N  N15  1  0.15919000  0.26281000  0.54814000  1.0 -0.586328649
N  N16  1  0.34081000  0.73719000  0.04814000  1.0 -0.586328649
N  N17  1  0.95186000  0.84081000  0.76281000  1.0 -0.586328649
N  N18  1  0.45186000  0.65919000  0.23719000  1.0 -0.586328649
N  N19  1  0.54814000  0.15919000  0.26281000  1.0 -0.586328649
N  N20  1  0.04814000  0.34081000  0.73719000  1.0 -0.586328649
N  N21  1  0.76281000  0.95186000  0.84081000  1.0 -0.586328649
N  N22  1  0.23719000  0.45186000  0.65919000  1.0 -0.586328649
N  N23  1  0.26281000  0.54814000  0.15919000  1.0 -0.586328649
N  N24  1  0.73719000  0.04814000  0.34081000  1.0 -0.586328649
N  N25  1  0.25575000  0.55231000  0.82972000  1.0 -0.5838779419
N  N26  1  0.24425000  0.44769000  0.32972000  1.0 -0.5838779419
N  N27  1  0.74425000  0.05231000  0.67028000  1.0 -0.5838779419
N  N28  1  0.75575000  0.94769000  0.17028000  1.0 -0.5838779419
N  N29  1  0.82972000  0.25575000  0.55231000  1.0 -0.5838779419
N  N30  1  0.32972000  0.24425000  0.44769000  1.0 -0.5838779419
N  N31  1  0.67028000  0.74425000  0.05231000  1.0 -0.5838779419
N  N32  1  0.17028000  0.75575000  0.94769000  1.0 -0.5838779419
N  N33  1  0.55231000  0.82972000  0.25575000  1.0 -0.5838779419
N  N34  1  0.44769000  0.32972000  0.24425000  1.0 -0.5838779419
N  N35  1  0.05231000  0.67028000  0.74425000  1.0 -0.5838779419
N  N36  1  0.94769000  0.17028000  0.75575000  1.0 -0.5838779419
N  N37  1  0.15919000  0.23719000  0.04814000  1.0 -0.586328649
N  N38  1  0.34081000  0.76281000  0.54814000  1.0 -0.586328649
N  N39  1  0.84081000  0.73719000  0.45186000  1.0 -0.586328649
N  N40  1  0.65919000  0.26281000  0.95186000  1.0 -0.586328649
N  N41  1  0.04814000  0.15919000  0.23719000  1.0 -0.586328649
N  N42  1  0.54814000  0.34081000  0.76281000  1.0 -0.586328649
N  N43  1  0.45186000  0.84081000  0.73719000  1.0 -0.586328649
N  N44  1  0.95186000  0.65919000  0.26281000  1.0 -0.586328649
N  N45  1  0.23719000  0.04814000  0.15919000  1.0 -0.586328649
N  N46  1  0.76281000  0.54814000  0.34081000  1.0 -0.586328649
N  N47  1  0.73719000  0.45186000  0.84081000  1.0 -0.586328649
N  N48  1  0.26281000  0.95186000  0.65919000  1.0 -0.586328649
O  O1  1  0.76020000  0.64120000  0.19820000  0.634 -0.1925378284
O  O2  1  0.73980000  0.35880000  0.69820000  0.634 -0.1925378284
O  O3  1  0.23980000  0.14120000  0.30180000  0.634 -0.1925378284
O  O4  1  0.26020000  0.85880000  0.80180000  0.634 -0.1925378284
O  O5  1  0.19820000  0.76020000  0.64120000  0.634 -0.1925378284
O  O6  1  0.69820000  0.73980000  0.35880000  0.634 -0.1925378284
O  O7  1  0.30180000  0.23980000  0.14120000  0.634 -0.1925378284
O  O8  1  0.80180000  0.26020000  0.85880000  0.634 -0.1925378284
O  O9  1  0.64120000  0.19820000  0.76020000  0.634 -0.1925378284
O  O10  1  0.35880000  0.69820000  0.73980000  0.634 -0.1925378284
O  O11  1  0.14120000  0.30180000  0.23980000  0.634 -0.1925378284
O  O12  1  0.85880000  0.80180000  0.26020000  0.634 -0.1925378284
O  O65  1  0.23980000  0.35880000  0.80180000  0.634 -0.1925378284
O  O66  1  0.26020000  0.64120000  0.30180000  0.634 -0.1925378284
O  O67  1  0.76020000  0.85880000  0.69820000  0.634 -0.1925378284
O  O68  1  0.73980000  0.14120000  0.19820000  0.634 -0.1925378284
O  O69  1  0.80180000  0.23980000  0.35880000  0.634 -0.1925378284
O  O70  1  0.30180000  0.26020000  0.64120000  0.634 -0.1925378284
O  O71  1  0.69820000  0.76020000  0.85880000  0.634 -0.1925378284
O  O72  1  0.19820000  0.73980000  0.14120000  0.634 -0.1925378284
O  O73  1  0.35880000  0.80180000  0.23980000  0.634 -0.1925378284
O  O74  1  0.64120000  0.30180000  0.26020000  0.634 -0.1925378284
O  O75  1  0.85880000  0.69820000  0.76020000  0.634 -0.1925378284
O  O76  1  0.14120000  0.19820000  0.73980000  0.634 -0.1925378284
O  O13  1  0.82499000  0.64253000  0.26045000  1.0 -0.4962327676
O  O14  1  0.67501000  0.35747000  0.76045000  1.0 -0.4962327676
O  O15  1  0.17501000  0.14253000  0.23955000  1.0 -0.4962327676
O  O16  1  0.32499000  0.85747000  0.73955000  1.0 -0.4962327676
O  O17  1  0.26045000  0.82499000  0.64253000  1.0 -0.4962327676
O  O18  1  0.76045000  0.67501000  0.35747000  1.0 -0.4962327676
O  O19  1  0.23955000  0.17501000  0.14253000  1.0 -0.4962327676
O  O20  1  0.73955000  0.32499000  0.85747000  1.0 -0.4962327676
O  O21  1  0.64253000  0.26045000  0.82499000  1.0 -0.4962327676
O  O22  1  0.35747000  0.76045000  0.67501000  1.0 -0.4962327676
O  O23  1  0.14253000  0.23955000  0.17501000  1.0 -0.4962327676
O  O24  1  0.85747000  0.73955000  0.32499000  1.0 -0.4962327676
O  O25  1  0.78813000  0.82727000  0.16815000  1.0 -0.5560608106
O  O26  1  0.71187000  0.17273000  0.66815000  1.0 -0.5560608106
O  O27  1  0.21187000  0.32727000  0.33185000  1.0 -0.5560608106
O  O28  1  0.28813000  0.67273000  0.83185000  1.0 -0.5560608106
O  O29  1  0.16815000  0.78813000  0.82727000  1.0 -0.5560608106
O  O30  1  0.66815000  0.71187000  0.17273000  1.0 -0.5560608106
O  O31  1  0.33185000  0.21187000  0.32727000  1.0 -0.5560608106
O  O32  1  0.83185000  0.28813000  0.67273000  1.0 -0.5560608106
O  O33  1  0.82727000  0.16815000  0.78813000  1.0 -0.5560608106
O  O34  1  0.17273000  0.66815000  0.71187000  1.0 -0.5560608106
O  O35  1  0.32727000  0.33185000  0.21187000  1.0 -0.5560608106
O  O36  1  0.67273000  0.83185000  0.28813000  1.0 -0.5560608106
O  O37  1  0.77262000  0.74906000  0.13251000  1.0 -0.5560608106
O  O38  1  0.72738000  0.25094000  0.63251000  1.0 -0.5560608106
O  O39  1  0.22738000  0.24906000  0.36749000  1.0 -0.5560608106
O  O40  1  0.27262000  0.75094000  0.86749000  1.0 -0.5560608106
O  O41  1  0.13251000  0.77262000  0.74906000  1.0 -0.5560608106
O  O42  1  0.63251000  0.72738000  0.25094000  1.0 -0.5560608106
O  O43  1  0.36749000  0.22738000  0.24906000  1.0 -0.5560608106
O  O44  1  0.86749000  0.27262000  0.75094000  1.0 -0.5560608106
O  O45  1  0.74906000  0.13251000  0.77262000  1.0 -0.5560608106
O  O46  1  0.25094000  0.63251000  0.72738000  1.0 -0.5560608106
O  O47  1  0.24906000  0.36749000  0.22738000  1.0 -0.5560608106
O  O48  1  0.75094000  0.86749000  0.27262000  1.0 -0.5560608106
O  O49  1  0.75369000  0.74631000  0.25369000  1.0 -0.9371158118
O  O50  1  0.74631000  0.25369000  0.75369000  1.0 -0.9371158118
O  O51  1  0.24631000  0.24631000  0.24631000  1.0 -0.9371158118
O  O52  1  0.25369000  0.75369000  0.74631000  1.0 -0.9371158118
O  O77  1  0.17501000  0.35747000  0.73955000  1.0 -0.4962327676
O  O78  1  0.32499000  0.64253000  0.23955000  1.0 -0.4962327676
O  O79  1  0.82499000  0.85747000  0.76045000  1.0 -0.4962327676
O  O80  1  0.67501000  0.14253000  0.26045000  1.0 -0.4962327676
O  O81  1  0.73955000  0.17501000  0.35747000  1.0 -0.4962327676
O  O82  1  0.23955000  0.32499000  0.64253000  1.0 -0.4962327676
O  O83  1  0.76045000  0.82499000  0.85747000  1.0 -0.4962327676
O  O84  1  0.26045000  0.67501000  0.14253000  1.0 -0.4962327676
O  O85  1  0.35747000  0.73955000  0.17501000  1.0 -0.4962327676
O  O86  1  0.64253000  0.23955000  0.32499000  1.0 -0.4962327676
O  O87  1  0.85747000  0.76045000  0.82499000  1.0 -0.4962327676
O  O88  1  0.14253000  0.26045000  0.67501000  1.0 -0.4962327676
O  O89  1  0.21187000  0.17273000  0.83185000  1.0 -0.5560608106
O  O90  1  0.28813000  0.82727000  0.33185000  1.0 -0.5560608106
O  O91  1  0.78813000  0.67273000  0.66815000  1.0 -0.5560608106
O  O92  1  0.71187000  0.32727000  0.16815000  1.0 -0.5560608106
O  O93  1  0.83185000  0.21187000  0.17273000  1.0 -0.5560608106
O  O94  1  0.33185000  0.28813000  0.82727000  1.0 -0.5560608106
O  O95  1  0.66815000  0.78813000  0.67273000  1.0 -0.5560608106
O  O96  1  0.16815000  0.71187000  0.32727000  1.0 -0.5560608106
O  O97  1  0.17273000  0.83185000  0.21187000  1.0 -0.5560608106
O  O98  1  0.82727000  0.33185000  0.28813000  1.0 -0.5560608106
O  O99  1  0.67273000  0.66815000  0.78813000  1.0 -0.5560608106
O  O100  1  0.32727000  0.16815000  0.71187000  1.0 -0.5560608106
O  O101  1  0.22738000  0.25094000  0.86749000  1.0 -0.5560608106
O  O102  1  0.27262000  0.74906000  0.36749000  1.0 -0.5560608106
O  O103  1  0.77262000  0.75094000  0.63251000  1.0 -0.5560608106
O  O104  1  0.72738000  0.24906000  0.13251000  1.0 -0.5560608106
O  O105  1  0.86749000  0.22738000  0.25094000  1.0 -0.5560608106
O  O106  1  0.36749000  0.27262000  0.74906000  1.0 -0.5560608106
O  O107  1  0.63251000  0.77262000  0.75094000  1.0 -0.5560608106
O  O108  1  0.13251000  0.72738000  0.24906000  1.0 -0.5560608106
O  O109  1  0.25094000  0.86749000  0.22738000  1.0 -0.5560608106
O  O110  1  0.74906000  0.36749000  0.27262000  1.0 -0.5560608106
O  O111  1  0.75094000  0.63251000  0.77262000  1.0 -0.5560608106
O  O112  1  0.24906000  0.13251000  0.72738000  1.0 -0.5560608106
O  O113  1  0.24631000  0.25369000  0.74631000  1.0 -0.9371158118
O  O114  1  0.25369000  0.74631000  0.24631000  1.0 -0.9371158118
O  O115  1  0.75369000  0.75369000  0.75369000  1.0 -0.9371158118
O  O116  1  0.74631000  0.24631000  0.25369000  1.0 -0.9371158118
O  O53  1  0.75270000  0.63130000  0.23270000  0.366 -0.06279029
O  O54  1  0.74730000  0.36870000  0.73270000  0.366 -0.06279029
O  O55  1  0.24730000  0.13130000  0.26730000  0.366 -0.06279029
O  O56  1  0.25270000  0.86870000  0.76730000  0.366 -0.06279029
O  O57  1  0.23270000  0.75270000  0.63130000  0.366 -0.06279029
O  O58  1  0.73270000  0.74730000  0.36870000  0.366 -0.06279029
O  O59  1  0.26730000  0.24730000  0.13130000  0.366 -0.06279029
O  O60  1  0.76730000  0.25270000  0.86870000  0.366 -0.06279029
O  O61  1  0.63130000  0.23270000  0.75270000  0.366 -0.06279029
O  O62  1  0.36870000  0.73270000  0.74730000  0.366 -0.06279029
O  O63  1  0.13130000  0.26730000  0.24730000  0.366 -0.06279029
O  O64  1  0.86870000  0.76730000  0.25270000  0.366 -0.06279029
O  O117  1  0.24730000  0.36870000  0.76730000  0.366 -0.06279029
O  O118  1  0.25270000  0.63130000  0.26730000  0.366 -0.06279029
O  O119  1  0.75270000  0.86870000  0.73270000  0.366 -0.06279029
O  O120  1  0.74730000  0.13130000  0.23270000  0.366 -0.06279029
O  O121  1  0.76730000  0.24730000  0.36870000  0.366 -0.06279029
O  O122  1  0.26730000  0.25270000  0.63130000  0.366 -0.06279029
O  O123  1  0.73270000  0.75270000  0.86870000  0.366 -0.06279029
O  O124  1  0.23270000  0.74730000  0.13130000  0.366 -0.06279029
O  O125  1  0.36870000  0.76730000  0.24730000  0.366 -0.06279029
O  O126  1  0.63130000  0.26730000  0.25270000  0.366 -0.06279029
O  O127  1  0.86870000  0.73270000  0.75270000  0.366 -0.06279029
O  O128  1  0.13130000  0.23270000  0.74730000  0.366 -0.06279029
