# DDEC6 charges by PACMAN v1.1 (https://github.com/mtap-research/PACMAN-charge/)
data_2017[Al][skl]3[FSR]2
_chemical_formula_sum              "Al16 H168 C272 O80"
_cell_length_a       18.933
_cell_length_b       18.933
_cell_length_c       36.424
_cell_angle_alpha    90
_cell_angle_beta     90
_cell_angle_gamma    90

_symmetry_space_group_name_H-M    "P 1"
_symmetry_Int_Tables_number       1

loop_
  _symmetry_equiv_pos_as_xyz
  'x, y, z'

loop_
  _atom_site_type_symbol
  _atom_site_label
  _atom_site_symmetry_multiplicity
  _atom_site_fract_x
  _atom_site_fract_y
  _atom_site_fract_z
  _atom_site_occupancy
  _atom_site_charge
Al  Al1       1.0  0.66424  0.33576  0.50000  1.0000 1.631982926
Al  Al2       1.0  0.16424  0.16424  0.00000  1.0000 1.631982926
Al  Al3       1.0  0.33576  0.66424  0.50000  1.0000 1.631982926
Al  Al4       1.0  0.83576  0.83576  0.00000  1.0000 1.631982926
Al  Al5       1.0  0.61827  0.38721  0.41701  1.0000 1.6405312851
Al  Al6       1.0  0.11279  0.11827  0.91701  1.0000 1.6405312851
Al  Al7       1.0  0.38173  0.61279  0.41701  1.0000 1.6405312851
Al  Al8       1.0  0.88721  0.88173  0.91701  1.0000 1.6405312851
Al  Al9       1.0  0.11827  0.11279  0.08299  1.0000 1.6405312851
Al  Al10      1.0  0.88173  0.88721  0.08299  1.0000 1.6405312851
Al  Al11      1.0  0.38721  0.61827  0.58299  1.0000 1.6405312851
Al  Al12      1.0  0.61279  0.38173  0.58299  1.0000 1.6405312851
Al  Al13      1.0  0.50000  0.50000  0.38569  1.0000 1.6405312851
Al  Al14      1.0  0.00000  0.00000  0.88569  1.0000 1.6405312851
Al  Al15      1.0  0.00000  0.00000  0.11431  1.0000 1.6405312851
Al  Al16      1.0  0.50000  0.50000  0.61431  1.0000 1.6405312851
H   H1        1.0  0.57830  0.50130  0.43770  1.0000 0.423915263
H   H2        1.0  0.99870  0.07830  0.93770  1.0000 0.423915263
H   H3        1.0  0.42170  0.49870  0.43770  1.0000 0.423915263
H   H4        1.0  0.00130  0.92170  0.93770  1.0000 0.423915263
H   H5        1.0  0.07830  0.99870  0.06230  1.0000 0.423915263
H   H6        1.0  0.92170  0.00130  0.06230  1.0000 0.423915263
H   H7        1.0  0.50130  0.57830  0.56230  1.0000 0.423915263
H   H8        1.0  0.49870  0.42170  0.56230  1.0000 0.423915263
H   H9        1.0  0.55390  0.36850  0.47270  1.0000 0.423915263
H   H10       1.0  0.13150  0.05390  0.97270  1.0000 0.423915263
H   H11       1.0  0.44610  0.63150  0.47270  1.0000 0.423915263
H   H12       1.0  0.86850  0.94610  0.97270  1.0000 0.423915263
H   H13       1.0  0.05390  0.13150  0.02730  1.0000 0.423915263
H   H14       1.0  0.94610  0.86850  0.02730  1.0000 0.423915263
H   H15       1.0  0.36850  0.55390  0.52730  1.0000 0.423915263
H   H16       1.0  0.63150  0.44610  0.52730  1.0000 0.423915263
H   H17       1.0  0.76300  0.62450  0.16510  1.0000 0.1111804494
H   H18       1.0  0.87550  0.26300  0.66510  1.0000 0.1111804494
H   H19       1.0  0.23700  0.37550  0.16510  1.0000 0.1111804494
H   H20       1.0  0.12450  0.73700  0.66510  1.0000 0.1111804494
H   H21       1.0  0.26300  0.87550  0.33490  1.0000 0.1111804494
H   H22       1.0  0.73700  0.12450  0.33490  1.0000 0.1111804494
H   H23       1.0  0.62450  0.76300  0.83490  1.0000 0.1111804494
H   H24       1.0  0.37550  0.23700  0.83490  1.0000 0.1111804494
H   H25       1.0  0.76830  0.63250  0.03830  1.0000 0.1280400645
H   H26       1.0  0.86750  0.26830  0.53830  1.0000 0.1280400645
H   H27       1.0  0.23170  0.36750  0.03830  1.0000 0.1280400645
H   H28       1.0  0.13250  0.73170  0.53830  1.0000 0.1280400645
H   H29       1.0  0.26830  0.86750  0.46170  1.0000 0.1280400645
H   H30       1.0  0.73170  0.13250  0.46170  1.0000 0.1280400645
H   H31       1.0  0.63250  0.76830  0.96170  1.0000 0.1280400645
H   H32       1.0  0.36750  0.23170  0.96170  1.0000 0.1280400645
H   H33       1.0  0.77780  0.73150  0.13530  1.0000 0.1280400645
H   H34       1.0  0.76850  0.27780  0.63530  1.0000 0.1280400645
H   H35       1.0  0.22220  0.26850  0.13530  1.0000 0.1280400645
H   H36       1.0  0.23150  0.72220  0.63530  1.0000 0.1280400645
H   H37       1.0  0.27780  0.76850  0.36470  1.0000 0.1280400645
H   H38       1.0  0.72220  0.23150  0.36470  1.0000 0.1280400645
H   H39       1.0  0.73150  0.77780  0.86470  1.0000 0.1280400645
H   H40       1.0  0.26850  0.22220  0.86470  1.0000 0.1280400645
H   H41       1.0  0.74790  0.52510  0.06950  1.0000 0.1111804494
H   H42       1.0  0.97490  0.24790  0.56950  1.0000 0.1111804494
H   H43       1.0  0.25210  0.47490  0.06950  1.0000 0.1111804494
H   H44       1.0  0.02510  0.75210  0.56950  1.0000 0.1111804494
H   H45       1.0  0.24790  0.97490  0.43050  1.0000 0.1111804494
H   H46       1.0  0.75210  0.02510  0.43050  1.0000 0.1111804494
H   H47       1.0  0.52510  0.74790  0.93050  1.0000 0.1111804494
H   H48       1.0  0.47490  0.25210  0.93050  1.0000 0.1111804494
H   H49       1.0  0.56960  0.50240  0.28120  1.0000 0.1280400645
H   H50       1.0  0.99760  0.06960  0.78120  1.0000 0.1280400645
H   H51       1.0  0.43040  0.49760  0.28120  1.0000 0.1280400645
H   H52       1.0  0.00240  0.93040  0.78120  1.0000 0.1280400645
H   H53       1.0  0.06960  0.99760  0.21880  1.0000 0.1280400645
H   H54       1.0  0.93040  0.00240  0.21880  1.0000 0.1280400645
H   H55       1.0  0.50240  0.56960  0.71880  1.0000 0.1280400645
H   H56       1.0  0.49760  0.43040  0.71880  1.0000 0.1280400645
H   H57       1.0  0.84900  0.15600  0.14320  1.0000 0.140498704
H   H58       1.0  0.34400  0.34900  0.64320  1.0000 0.140498704
H   H59       1.0  0.15100  0.84400  0.14320  1.0000 0.140498704
H   H60       1.0  0.65600  0.65100  0.64320  1.0000 0.140498704
H   H61       1.0  0.34900  0.34400  0.35680  1.0000 0.140498704
H   H62       1.0  0.65100  0.65600  0.35680  1.0000 0.140498704
H   H63       1.0  0.15600  0.84900  0.85680  1.0000 0.140498704
H   H64       1.0  0.84400  0.15100  0.85680  1.0000 0.140498704
H   H65       1.0  0.98950  0.29220  0.09760  1.0000 0.1280400645
H   H66       1.0  0.20780  0.48950  0.59760  1.0000 0.1280400645
H   H67       1.0  0.01050  0.70780  0.09760  1.0000 0.1280400645
H   H68       1.0  0.79220  0.51050  0.59760  1.0000 0.1280400645
H   H69       1.0  0.48950  0.20780  0.40240  1.0000 0.1280400645
H   H70       1.0  0.51050  0.79220  0.40240  1.0000 0.1280400645
H   H71       1.0  0.29220  0.98950  0.90240  1.0000 0.1280400645
H   H72       1.0  0.70780  0.01050  0.90240  1.0000 0.1280400645
H   H73       1.0  0.71260  0.35120  0.30960  1.0000 0.1280400645
H   H74       1.0  0.14880  0.21260  0.80960  1.0000 0.1280400645
H   H75       1.0  0.28740  0.64880  0.30960  1.0000 0.1280400645
H   H76       1.0  0.85120  0.78740  0.80960  1.0000 0.1280400645
H   H77       1.0  0.21260  0.14880  0.19040  1.0000 0.1280400645
H   H78       1.0  0.78740  0.85120  0.19040  1.0000 0.1280400645
H   H79       1.0  0.35120  0.71260  0.69040  1.0000 0.1280400645
H   H80       1.0  0.64880  0.28740  0.69040  1.0000 0.1280400645
H   H81       1.0  0.76090  0.36590  0.25510  1.0000 0.1174814945
H   H82       1.0  0.13410  0.26090  0.75510  1.0000 0.1174814945
H   H83       1.0  0.23910  0.63410  0.25510  1.0000 0.1174814945
H   H84       1.0  0.86590  0.73910  0.75510  1.0000 0.1174814945
H   H85       1.0  0.26090  0.13410  0.24490  1.0000 0.1174814945
H   H86       1.0  0.73910  0.86590  0.24490  1.0000 0.1174814945
H   H87       1.0  0.36590  0.76090  0.74490  1.0000 0.1174814945
H   H88       1.0  0.63410  0.23910  0.74490  1.0000 0.1174814945
H   H89       1.0  0.60970  0.49250  0.22390  1.0000 0.1174814945
H   H90       1.0  0.00750  0.10970  0.72390  1.0000 0.1174814945
H   H91       1.0  0.39030  0.50750  0.22390  1.0000 0.1174814945
H   H92       1.0  0.99250  0.89030  0.72390  1.0000 0.1174814945
H   H93       1.0  0.10970  0.00750  0.27610  1.0000 0.1174814945
H   H94       1.0  0.89030  0.99250  0.27610  1.0000 0.1174814945
H   H95       1.0  0.49250  0.60970  0.77610  1.0000 0.1174814945
H   H96       1.0  0.50750  0.39030  0.77610  1.0000 0.1174814945
H   H97       1.0  0.69150  0.53110  0.18230  1.0000 0.1111804494
H   H98       1.0  0.96890  0.19150  0.68230  1.0000 0.1111804494
H   H99       1.0  0.30850  0.46890  0.18230  1.0000 0.1111804494
H   H100      1.0  0.03110  0.80850  0.68230  1.0000 0.1111804494
H   H101      1.0  0.19150  0.96890  0.31770  1.0000 0.1111804494
H   H102      1.0  0.80850  0.03110  0.31770  1.0000 0.1111804494
H   H103      1.0  0.53110  0.69150  0.81770  1.0000 0.1111804494
H   H104      1.0  0.46890  0.30850  0.81770  1.0000 0.1111804494
H   H105      1.0  0.91470  0.38020  0.11510  1.0000 0.1174814945
H   H106      1.0  0.11980  0.41470  0.61510  1.0000 0.1174814945
H   H107      1.0  0.08530  0.61980  0.11510  1.0000 0.1174814945
H   H108      1.0  0.88020  0.58530  0.61510  1.0000 0.1174814945
H   H109      1.0  0.41470  0.11980  0.38490  1.0000 0.1174814945
H   H110      1.0  0.58530  0.88020  0.38490  1.0000 0.1111804494
H   H111      1.0  0.38020  0.91470  0.88490  1.0000 0.1174814945
H   H112      1.0  0.61980  0.08530  0.88490  1.0000 0.1174814945
H   H113      1.0  0.78290  0.23500  0.15620  1.0000 0.1280400645
H   H114      1.0  0.26500  0.28290  0.65620  1.0000 0.1280400645
H   H115      1.0  0.21710  0.76500  0.15620  1.0000 0.1280400645
H   H116      1.0  0.73500  0.71710  0.65620  1.0000 0.1280400645
H   H117      1.0  0.28290  0.26500  0.34380  1.0000 0.1280400645
H   H118      1.0  0.71710  0.73500  0.34380  1.0000 0.1280400645
H   H119      1.0  0.23500  0.78290  0.84380  1.0000 0.1280400645
H   H120      1.0  0.76500  0.21710  0.84380  1.0000 0.1280400645
H   H121      1.0  0.80820  0.44470  0.10460  1.0000 0.1111804494
H   H122      1.0  0.05530  0.30820  0.60460  1.0000 0.1111804494
H   H123      1.0  0.19180  0.55530  0.10460  1.0000 0.1111804494
H   H124      1.0  0.94470  0.69180  0.60460  1.0000 0.1111804494
H   H125      1.0  0.30820  0.05530  0.39540  1.0000 0.1111804494
H   H126      1.0  0.69180  0.94470  0.39540  1.0000 0.1111804494
H   H127      1.0  0.44470  0.80820  0.89540  1.0000 0.1111804494
H   H128      1.0  0.55530  0.19180  0.89540  1.0000 0.1111804494
H   H129      1.0  0.76600  0.33270  0.19620  1.0000 0.1111804494
H   H130      1.0  0.16730  0.26600  0.69620  1.0000 0.1111804494
H   H131      1.0  0.23400  0.66730  0.19620  1.0000 0.1111804494
H   H132      1.0  0.83270  0.73400  0.69620  1.0000 0.1111804494
H   H133      1.0  0.26600  0.16730  0.30380  1.0000 0.1111804494
H   H134      1.0  0.73400  0.83270  0.30380  1.0000 0.1111804494
H   H135      1.0  0.33270  0.76600  0.80380  1.0000 0.1111804494
H   H136      1.0  0.66730  0.23400  0.80380  1.0000 0.1111804494
H   H137      1.0  0.82090  0.48260  0.39610  1.0000 0.1467552517
H   H138      1.0  0.01740  0.32090  0.89610  1.0000 0.1467552517
H   H139      1.0  0.17910  0.51740  0.39610  1.0000 0.1467552517
H   H140      1.0  0.98260  0.67910  0.89610  1.0000 0.1467552517
H   H141      1.0  0.32090  0.01740  0.10390  1.0000 0.1467552517
H   H142      1.0  0.67910  0.98260  0.10390  1.0000 0.1467552517
H   H143      1.0  0.48260  0.82090  0.60390  1.0000 0.1467552517
H   H144      1.0  0.51740  0.17910  0.60390  1.0000 0.1467552517
H   H145      1.0  0.93590  0.50510  0.39310  1.0000 0.1174814945
H   H146      1.0  0.99490  0.43590  0.89310  1.0000 0.1174814945
H   H147      1.0  0.06410  0.49490  0.39310  1.0000 0.1174814945
H   H148      1.0  0.00510  0.56410  0.89310  1.0000 0.1174814945
H   H149      1.0  0.43590  0.99490  0.10690  1.0000 0.1174814945
H   H150      1.0  0.56410  0.00510  0.10690  1.0000 0.1174814945
H   H151      1.0  0.50510  0.93590  0.60690  1.0000 0.1174814945
H   H152      1.0  0.49490  0.06410  0.60690  1.0000 0.1174814945
H   H153      1.0  0.84470  0.42930  0.50080  1.0000 0.140498704
H   H154      1.0  0.07070  0.34470  0.00080  1.0000 0.140498704
H   H155      1.0  0.15530  0.57070  0.50080  1.0000 0.140498704
H   H156      1.0  0.92930  0.65530  0.00080  1.0000 0.140498704
H   H157      1.0  0.34470  0.07070  0.99920  1.0000 0.140498704
H   H158      1.0  0.65530  0.92930  0.99920  1.0000 0.140498704
H   H159      1.0  0.42930  0.84470  0.49920  1.0000 0.140498704
H   H160      1.0  0.57070  0.15530  0.49920  1.0000 0.140498704
H   H161      1.0  0.96580  0.43530  0.49400  1.0000 0.1174814945
H   H162      1.0  0.06470  0.46580  0.99400  1.0000 0.1174814945
H   H163      1.0  0.03420  0.56470  0.49400  1.0000 0.1111804494
H   H164      1.0  0.93530  0.53420  0.99400  1.0000 0.1174814945
H   H165      1.0  0.46580  0.06470  0.00600  1.0000 0.1174814945
H   H166      1.0  0.53420  0.93530  0.00600  1.0000 0.1111804494
H   H167      1.0  0.43530  0.96580  0.50600  1.0000 0.1174814945
H   H168      1.0  0.56470  0.03420  0.50600  1.0000 0.1174814945
C   C1        1.0  0.61230  0.43340  0.34075  1.0000 0.6146634852
C   C2        1.0  0.06660  0.11230  0.84075  1.0000 0.6146634852
C   C3        1.0  0.38770  0.56660  0.34075  1.0000 0.6146634852
C   C4        1.0  0.93340  0.88770  0.84075  1.0000 0.6146634852
C   C5        1.0  0.11230  0.06660  0.15925  1.0000 0.6146634852
C   C6        1.0  0.88770  0.93340  0.15925  1.0000 0.6146634852
C   C7        1.0  0.43340  0.61230  0.65925  1.0000 0.6146634852
C   C8        1.0  0.56660  0.38770  0.65925  1.0000 0.6146634852
C   C9        1.0  0.76310  0.62600  0.13955  1.0000 -0.1560125391
C   C10       1.0  0.87400  0.26310  0.63955  1.0000 -0.1560125391
C   C11       1.0  0.23690  0.37400  0.13955  1.0000 -0.1560125391
C   C12       1.0  0.12600  0.73690  0.63955  1.0000 -0.1560125391
C   C13       1.0  0.26310  0.87400  0.36045  1.0000 -0.1560125391
C   C14       1.0  0.73690  0.12600  0.36045  1.0000 -0.1560125391
C   C15       1.0  0.62600  0.76310  0.86045  1.0000 -0.1560125391
C   C16       1.0  0.37400  0.23690  0.86045  1.0000 -0.1560125391
C   C17       1.0  0.76770  0.63100  0.06380  1.0000 -0.0907551064
C   C18       1.0  0.86900  0.26770  0.56380  1.0000 -0.0907551064
C   C19       1.0  0.23230  0.36900  0.06380  1.0000 -0.0907551064
C   C20       1.0  0.13100  0.73230  0.56380  1.0000 -0.0907551064
C   C21       1.0  0.26770  0.86900  0.43620  1.0000 -0.0907551064
C   C22       1.0  0.73230  0.13100  0.43620  1.0000 -0.0907551064
C   C23       1.0  0.63100  0.76770  0.93620  1.0000 -0.0907551064
C   C24       1.0  0.36900  0.23230  0.93620  1.0000 -0.0907551064
C   C25       1.0  0.97650  0.15100  0.10973  1.0000 0.6015903388
C   C26       1.0  0.34900  0.47650  0.60973  1.0000 0.6015903388
C   C27       1.0  0.02350  0.84900  0.10973  1.0000 0.6015903388
C   C28       1.0  0.65100  0.52350  0.60973  1.0000 0.6015903388
C   C29       1.0  0.47650  0.34900  0.39027  1.0000 0.6015903388
C   C30       1.0  0.52350  0.65100  0.39027  1.0000 0.6015903388
C   C31       1.0  0.15100  0.97650  0.89027  1.0000 0.6015903388
C   C32       1.0  0.84900  0.02350  0.89027  1.0000 0.6015903388
C   C33       1.0  0.77400  0.68980  0.12188  1.0000 -0.0907551064
C   C34       1.0  0.81020  0.27400  0.62188  1.0000 -0.0907551064
C   C35       1.0  0.22600  0.31020  0.12188  1.0000 -0.0907551064
C   C36       1.0  0.18980  0.72600  0.62188  1.0000 -0.0907551064
C   C37       1.0  0.27400  0.81020  0.37812  1.0000 -0.0907551064
C   C38       1.0  0.72600  0.18980  0.37812  1.0000 -0.0907551064
C   C39       1.0  0.68980  0.77400  0.87812  1.0000 -0.0907551064
C   C40       1.0  0.31020  0.22600  0.87812  1.0000 -0.0907551064
C   C41       1.0  0.75470  0.56620  0.08293  1.0000 -0.1479916997
C   C42       1.0  0.93380  0.25470  0.58293  1.0000 -0.1479916997
C   C43       1.0  0.24530  0.43380  0.08293  1.0000 -0.1479916997
C   C44       1.0  0.06620  0.74530  0.58293  1.0000 -0.1479916997
C   C45       1.0  0.25470  0.93380  0.41707  1.0000 -0.1479916997
C   C46       1.0  0.74530  0.06620  0.41707  1.0000 -0.1479916997
C   C47       1.0  0.56620  0.75470  0.91707  1.0000 -0.1479916997
C   C48       1.0  0.43380  0.24530  0.91707  1.0000 -0.1479916997
C   C49       1.0  0.77920  0.69070  0.08413  1.0000 -0.0620625097
C   C50       1.0  0.80930  0.27920  0.58413  1.0000 -0.0620625097
C   C51       1.0  0.22080  0.30930  0.08413  1.0000 -0.0620625097
C   C52       1.0  0.19070  0.72080  0.58413  1.0000 -0.0620625097
C   C53       1.0  0.27920  0.80930  0.41587  1.0000 -0.0620625097
C   C54       1.0  0.72080  0.19070  0.41587  1.0000 -0.0620625097
C   C55       1.0  0.69070  0.77920  0.91587  1.0000 -0.0620625097
C   C56       1.0  0.30930  0.22080  0.91587  1.0000 -0.0620625097
C   C57       1.0  0.80280  0.75650  0.06652  1.0000 0.6201554572
C   C58       1.0  0.74350  0.30280  0.56652  1.0000 0.6201554572
C   C59       1.0  0.19720  0.24350  0.06652  1.0000 0.6201554572
C   C60       1.0  0.25650  0.69720  0.56652  1.0000 0.6201554572
C   C61       1.0  0.30280  0.74350  0.43348  1.0000 0.6201554572
C   C62       1.0  0.69720  0.25650  0.43348  1.0000 0.6201554572
C   C63       1.0  0.75650  0.80280  0.93348  1.0000 0.6201554572
C   C64       1.0  0.24350  0.19720  0.93348  1.0000 0.6201554572
C   C65       1.0  0.93140  0.20880  0.11812  1.0000 -0.123044539
C   C66       1.0  0.29120  0.43140  0.61812  1.0000 -0.123044539
C   C67       1.0  0.06860  0.79120  0.11812  1.0000 -0.123044539
C   C68       1.0  0.70880  0.56860  0.61812  1.0000 -0.123044539
C   C69       1.0  0.43140  0.29120  0.38188  1.0000 -0.123044539
C   C70       1.0  0.56860  0.70880  0.38188  1.0000 -0.123044539
C   C71       1.0  0.20880  0.93140  0.88188  1.0000 -0.123044539
C   C72       1.0  0.79120  0.06860  0.88188  1.0000 -0.123044539
C   C73       1.0  0.60700  0.47210  0.27590  1.0000 -0.0977027766
C   C74       1.0  0.02790  0.10700  0.77590  1.0000 -0.0977027766
C   C75       1.0  0.39300  0.52790  0.27590  1.0000 -0.0977027766
C   C76       1.0  0.97210  0.89300  0.77590  1.0000 -0.0907551064
C   C77       1.0  0.10700  0.02790  0.22410  1.0000 -0.0977027766
C   C78       1.0  0.89300  0.97210  0.22410  1.0000 -0.0907551064
C   C79       1.0  0.47210  0.60700  0.72410  1.0000 -0.0977027766
C   C80       1.0  0.52790  0.39300  0.72410  1.0000 -0.0977027766
C   C81       1.0  0.75190  0.56320  0.11948  1.0000 0.0718990909
C   C82       1.0  0.93680  0.25190  0.61948  1.0000 0.0718990909
C   C83       1.0  0.24810  0.43680  0.11948  1.0000 0.0718990909
C   C84       1.0  0.06320  0.74810  0.61948  1.0000 0.0718990909
C   C85       1.0  0.25190  0.93680  0.38052  1.0000 0.0718990909
C   C86       1.0  0.74810  0.06320  0.38052  1.0000 0.0718990909
C   C87       1.0  0.56320  0.75190  0.88052  1.0000 0.0718990909
C   C88       1.0  0.43680  0.24810  0.88052  1.0000 0.0718990909
C   C89       1.0  0.68790  0.42970  0.23248  1.0000 0.0718990909
C   C90       1.0  0.07030  0.18790  0.73248  1.0000 0.0718990909
C   C91       1.0  0.31210  0.57030  0.23248  1.0000 0.0718990909
C   C92       1.0  0.92970  0.81210  0.73248  1.0000 0.0718990909
C   C93       1.0  0.18790  0.07030  0.26752  1.0000 0.0718990909
C   C94       1.0  0.81210  0.92970  0.26752  1.0000 0.0718990909
C   C95       1.0  0.42970  0.68790  0.76752  1.0000 0.0718990909
C   C96       1.0  0.57030  0.31210  0.76752  1.0000 0.0718990909
C   C97       1.0  0.86270  0.20150  0.13670  1.0000 -0.0738371744
C   C98       1.0  0.29850  0.36270  0.63670  1.0000 -0.0738371744
C   C99       1.0  0.13730  0.79850  0.13670  1.0000 -0.0738371744
C   C100      1.0  0.70150  0.63730  0.63670  1.0000 -0.0738371744
C   C101      1.0  0.36270  0.29850  0.36330  1.0000 -0.0738371744
C   C102      1.0  0.63730  0.70150  0.36330  1.0000 -0.0738371744
C   C103      1.0  0.20150  0.86270  0.86330  1.0000 -0.0738371744
C   C104      1.0  0.79850  0.13730  0.86330  1.0000 -0.0738371744
C   C105      1.0  0.72380  0.43150  0.19499  1.0000 0.093773877
C   C106      1.0  0.06850  0.22380  0.69499  1.0000 0.093773877
C   C107      1.0  0.27620  0.56850  0.19499  1.0000 0.093773877
C   C108      1.0  0.93150  0.77620  0.69499  1.0000 0.093773877
C   C109      1.0  0.22380  0.06850  0.30501  1.0000 0.093773877
C   C110      1.0  0.77620  0.93150  0.30501  1.0000 0.093773877
C   C111      1.0  0.43150  0.72380  0.80501  1.0000 0.093773877
C   C112      1.0  0.56850  0.27620  0.80501  1.0000 0.093773877
C   C113      1.0  0.63840  0.42910  0.30418  1.0000 -0.1068968343
C   C114      1.0  0.07090  0.13840  0.80418  1.0000 -0.1068968343
C   C115      1.0  0.36160  0.57090  0.30418  1.0000 -0.1068968343
C   C116      1.0  0.92910  0.86160  0.80418  1.0000 -0.1068968343
C   C117      1.0  0.13840  0.07090  0.19582  1.0000 -0.1068968343
C   C118      1.0  0.86160  0.92910  0.19582  1.0000 -0.1068968343
C   C119      1.0  0.42910  0.63840  0.69582  1.0000 -0.1068968343
C   C120      1.0  0.57090  0.36160  0.69582  1.0000 -0.1068968343
C   C121      1.0  0.94770  0.28110  0.10967  1.0000 -0.0845028723
C   C122      1.0  0.21890  0.44770  0.60967  1.0000 -0.0845028723
C   C123      1.0  0.05230  0.71890  0.10967  1.0000 -0.0845028723
C   C124      1.0  0.78110  0.55230  0.60967  1.0000 -0.0845028723
C   C125      1.0  0.44770  0.21890  0.39033  1.0000 -0.0845028723
C   C126      1.0  0.55230  0.78110  0.39033  1.0000 -0.0845028723
C   C127      1.0  0.28110  0.94770  0.89033  1.0000 -0.0845028723
C   C128      1.0  0.71890  0.05230  0.89033  1.0000 -0.0845028723
C   C129      1.0  0.69420  0.38430  0.29336  1.0000 -0.0907551064
C   C130      1.0  0.11570  0.19420  0.79336  1.0000 -0.0977027766
C   C131      1.0  0.30580  0.61570  0.29336  1.0000 -0.0977027766
C   C132      1.0  0.88430  0.80580  0.79336  1.0000 -0.0907551064
C   C133      1.0  0.19420  0.11570  0.20664  1.0000 -0.0977027766
C   C134      1.0  0.80580  0.88430  0.20664  1.0000 -0.0907551064
C   C135      1.0  0.38430  0.69420  0.70664  1.0000 -0.0907551064
C   C136      1.0  0.61570  0.30580  0.70664  1.0000 -0.0907551064
C   C137      1.0  0.71930  0.38990  0.26047  1.0000 -0.1479916997
C   C138      1.0  0.11010  0.21930  0.76047  1.0000 -0.1479916997
C   C139      1.0  0.28070  0.61010  0.26047  1.0000 -0.1479916997
C   C140      1.0  0.88990  0.78070  0.76047  1.0000 -0.1479916997
C   C141      1.0  0.21930  0.11010  0.23953  1.0000 -0.1479916997
C   C142      1.0  0.78070  0.88990  0.23953  1.0000 -0.1479916997
C   C143      1.0  0.38990  0.71930  0.73953  1.0000 -0.1479916997
C   C144      1.0  0.61010  0.28070  0.73953  1.0000 -0.1479916997
C   C145      1.0  0.83670  0.31910  0.13524  1.0000 0.0504807492
C   C146      1.0  0.18090  0.33670  0.63524  1.0000 0.0504807492
C   C147      1.0  0.16330  0.68090  0.13524  1.0000 0.0504807492
C   C148      1.0  0.81910  0.66330  0.63524  1.0000 0.0504807492
C   C149      1.0  0.33670  0.18090  0.36476  1.0000 0.0504807492
C   C150      1.0  0.66330  0.81910  0.36476  1.0000 0.0504807492
C   C151      1.0  0.31910  0.83670  0.86476  1.0000 0.0504807492
C   C152      1.0  0.68090  0.16330  0.86476  1.0000 0.0504807492
C   C153      1.0  0.63270  0.46720  0.24227  1.0000 -0.123044539
C   C154      1.0  0.03280  0.13270  0.74227  1.0000 -0.123044539
C   C155      1.0  0.36730  0.53280  0.24227  1.0000 -0.123044539
C   C156      1.0  0.96720  0.86730  0.74227  1.0000 -0.123044539
C   C157      1.0  0.13270  0.03280  0.25773  1.0000 -0.123044539
C   C158      1.0  0.86730  0.96720  0.25773  1.0000 -0.123044539
C   C159      1.0  0.46720  0.63270  0.75773  1.0000 -0.123044539
C   C160      1.0  0.53280  0.36730  0.75773  1.0000 -0.123044539
C   C161      1.0  0.71640  0.49250  0.17322  1.0000 -0.2130084599
C   C162      1.0  0.00750  0.21640  0.67322  1.0000 -0.2130084599
C   C163      1.0  0.28360  0.50750  0.17322  1.0000 -0.2130084599
C   C164      1.0  0.99250  0.78360  0.67322  1.0000 -0.2130084599
C   C165      1.0  0.21640  0.00750  0.32678  1.0000 -0.2130084599
C   C166      1.0  0.78360  0.99250  0.32678  1.0000 -0.2130084599
C   C167      1.0  0.49250  0.71640  0.82678  1.0000 -0.2130084599
C   C168      1.0  0.50750  0.28360  0.82678  1.0000 -0.2130084599
C   C169      1.0  0.90200  0.33340  0.11929  1.0000 -0.1479916997
C   C170      1.0  0.16660  0.40200  0.61929  1.0000 -0.1479916997
C   C171      1.0  0.09800  0.66667  0.11929  1.0000 -0.1479916997
C   C172      1.0  0.83340  0.59800  0.61929  1.0000 -0.1479916997
C   C173      1.0  0.40200  0.16660  0.38071  1.0000 -0.1479916997
C   C174      1.0  0.59800  0.83340  0.38071  1.0000 -0.1479916997
C   C175      1.0  0.33340  0.90200  0.88071  1.0000 -0.1479916997
C   C176      1.0  0.66667  0.09800  0.88071  1.0000 -0.1479916997
C   C177      1.0  0.79270  0.37650  0.14798  1.0000 0.0718990909
C   C178      1.0  0.12350  0.29270  0.64798  1.0000 0.0718990909
C   C179      1.0  0.20730  0.62350  0.14798  1.0000 0.0718990909
C   C180      1.0  0.87650  0.70730  0.64798  1.0000 0.0718990909
C   C181      1.0  0.29270  0.12350  0.35202  1.0000 0.0718990909
C   C182      1.0  0.70730  0.87650  0.35202  1.0000 0.0718990909
C   C183      1.0  0.37650  0.79270  0.85202  1.0000 0.0718990909
C   C184      1.0  0.62350  0.20730  0.85202  1.0000 0.0718990909
C   C185      1.0  0.82440  0.24650  0.14393  1.0000 -0.1068968343
C   C186      1.0  0.25350  0.32440  0.64393  1.0000 -0.1068968343
C   C187      1.0  0.17560  0.75350  0.14393  1.0000 -0.1068968343
C   C188      1.0  0.74650  0.67560  0.64393  1.0000 -0.1068968343
C   C189      1.0  0.32440  0.25350  0.35607  1.0000 -0.1068968343
C   C190      1.0  0.67560  0.74650  0.35607  1.0000 -0.1068968343
C   C191      1.0  0.24650  0.82440  0.85607  1.0000 -0.1068968343
C   C192      1.0  0.75350  0.17560  0.85607  1.0000 -0.1068968343
C   C193      1.0  0.74540  0.49550  0.13890  1.0000 0.0771421936
C   C194      1.0  0.00450  0.24540  0.63890  1.0000 0.0771421936
C   C195      1.0  0.25460  0.50450  0.13890  1.0000 0.0771421936
C   C196      1.0  0.99550  0.75460  0.63890  1.0000 0.0771421936
C   C197      1.0  0.24540  0.00450  0.36110  1.0000 0.0771421936
C   C198      1.0  0.75460  0.99550  0.36110  1.0000 0.0771421936
C   C199      1.0  0.49550  0.74540  0.86110  1.0000 0.0771421936
C   C200      1.0  0.50450  0.25460  0.86110  1.0000 0.0771421936
C   C201      1.0  0.78500  0.44080  0.12705  1.0000 -0.1990270841
C   C202      1.0  0.05920  0.28500  0.62705  1.0000 -0.1990270841
C   C203      1.0  0.21500  0.55920  0.12705  1.0000 -0.1990270841
C   C204      1.0  0.94080  0.71500  0.62705  1.0000 -0.1990270841
C   C205      1.0  0.28500  0.05920  0.37295  1.0000 -0.1990270841
C   C206      1.0  0.71500  0.94080  0.37295  1.0000 -0.1990270841
C   C207      1.0  0.44080  0.78500  0.87295  1.0000 -0.1990270841
C   C208      1.0  0.55920  0.21500  0.87295  1.0000 -0.1990270841
C   C209      1.0  0.76180  0.37320  0.18199  1.0000 -0.2130084599
C   C210      1.0  0.12680  0.26180  0.68199  1.0000 -0.2130084599
C   C211      1.0  0.23820  0.62680  0.18199  1.0000 -0.2130084599
C   C212      1.0  0.87320  0.73820  0.68199  1.0000 -0.2130084599
C   C213      1.0  0.26180  0.12680  0.31801  1.0000 -0.2130084599
C   C214      1.0  0.73820  0.87320  0.31801  1.0000 -0.2130084599
C   C215      1.0  0.37320  0.76180  0.81801  1.0000 -0.2130084599
C   C216      1.0  0.62680  0.23820  0.81801  1.0000 -0.2130084599
C   C217      1.0  0.74770  0.42720  0.45370  1.0000 0.6250271832
C   C218      1.0  0.07280  0.24770  0.95370  1.0000 0.6250271832
C   C219      1.0  0.25230  0.57280  0.45370  1.0000 0.6201554572
C   C220      1.0  0.92720  0.75230  0.95370  1.0000 0.6250271832
C   C221      1.0  0.24770  0.07280  0.04630  1.0000 0.6201554572
C   C222      1.0  0.75230  0.92720  0.04630  1.0000 0.6250271832
C   C223      1.0  0.42720  0.74770  0.54630  1.0000 0.6201554572
C   C224      1.0  0.57280  0.25230  0.54630  1.0000 0.6250271832
C   C225      1.0  0.84940  0.47650  0.41667  1.0000 -0.0977027766
C   C226      1.0  0.02350  0.34940  0.91667  1.0000 -0.0977027766
C   C227      1.0  0.15060  0.52350  0.41667  1.0000 -0.0977027766
C   C228      1.0  0.97650  0.65060  0.91667  1.0000 -0.0977027766
C   C229      1.0  0.34940  0.02350  0.08333  1.0000 -0.0977027766
C   C230      1.0  0.65060  0.97650  0.08333  1.0000 -0.0977027766
C   C231      1.0  0.47650  0.84940  0.58333  1.0000 -0.0977027766
C   C232      1.0  0.52350  0.15060  0.58333  1.0000 -0.0977027766
C   C233      1.0  0.82230  0.44870  0.44850  1.0000 -0.0545960183
C   C234      1.0  0.05130  0.32230  0.94850  1.0000 -0.0545960183
C   C235      1.0  0.17770  0.55130  0.44850  1.0000 -0.0545960183
C   C236      1.0  0.94870  0.67770  0.94850  1.0000 -0.0545960183
C   C237      1.0  0.32230  0.05130  0.05150  1.0000 -0.0545960183
C   C238      1.0  0.67770  0.94870  0.05150  1.0000 -0.0545960183
C   C239      1.0  0.44870  0.82230  0.55150  1.0000 -0.0545960183
C   C240      1.0  0.55130  0.17770  0.55150  1.0000 -0.0545960183
C   C241      1.0  0.91650  0.49430  0.41590  1.0000 -0.1384747944
C   C242      1.0  0.00570  0.41650  0.91590  1.0000 -0.1384747944
C   C243      1.0  0.08350  0.50570  0.41590  1.0000 -0.1384747944
C   C244      1.0  0.99430  0.58350  0.91590  1.0000 -0.1384747944
C   C245      1.0  0.41650  0.00570  0.08410  1.0000 -0.1384747944
C   C246      1.0  0.58350  0.99430  0.08410  1.0000 -0.1384747944
C   C247      1.0  0.49430  0.91650  0.58410  1.0000 -0.1384747944
C   C248      1.0  0.50570  0.08350  0.58410  1.0000 -0.1384747944
C   C249      1.0  0.86470  0.44220  0.47850  1.0000 -0.0977027766
C   C250      1.0  0.05780  0.36470  0.97850  1.0000 -0.0977027766
C   C251      1.0  0.13530  0.55780  0.47850  1.0000 -0.0977027766
C   C252      1.0  0.94220  0.63530  0.97850  1.0000 -0.0977027766
C   C253      1.0  0.36470  0.05780  0.02150  1.0000 -0.0977027766
C   C254      1.0  0.63530  0.94220  0.02150  1.0000 -0.0977027766
C   C255      1.0  0.44220  0.86470  0.52150  1.0000 -0.0977027766
C   C256      1.0  0.55780  0.13530  0.52150  1.0000 -0.0977027766
C   C257      1.0  0.96000  0.49840  0.44548  1.0000 0.0771421936
C   C258      1.0  0.00160  0.46000  0.94548  1.0000 0.0771421936
C   C259      1.0  0.04000  0.50160  0.44548  1.0000 0.0771421936
C   C260      1.0  0.99840  0.54000  0.94548  1.0000 0.0771421936
C   C261      1.0  0.46000  0.00160  0.05452  1.0000 0.0771421936
C   C262      1.0  0.54000  0.99840  0.05452  1.0000 0.0771421936
C   C263      1.0  0.49840  0.96000  0.55452  1.0000 0.0771421936
C   C264      1.0  0.50160  0.04000  0.55452  1.0000 0.0771421936
C   C265      1.0  0.93480  0.45390  0.47670  1.0000 -0.1384747944
C   C266      1.0  0.04610  0.43480  0.97670  1.0000 -0.1384747944
C   C267      1.0  0.06520  0.54610  0.47670  1.0000 -0.1384747944
C   C268      1.0  0.95390  0.56520  0.97670  1.0000 -0.1384747944
C   C269      1.0  0.43480  0.04610  0.02330  1.0000 -0.1384747944
C   C270      1.0  0.56520  0.95390  0.02330  1.0000 -0.1384747944
C   C271      1.0  0.45390  0.93480  0.52330  1.0000 -0.1384747944
C   C272      1.0  0.54610  0.06520  0.52330  1.0000 -0.1384747944
O   O1        1.0  0.56809  0.47079  0.41845  1.0000 -1.0020886923
O   O2        1.0  0.02921  0.06809  0.91845  1.0000 -1.0020886923
O   O3        1.0  0.43191  0.52921  0.41845  1.0000 -1.0020886923
O   O4        1.0  0.97079  0.93191  0.91845  1.0000 -1.0020886923
O   O5        1.0  0.06809  0.02921  0.08155  1.0000 -1.0020886923
O   O6        1.0  0.93191  0.97079  0.08155  1.0000 -1.0020886923
O   O7        1.0  0.47079  0.56809  0.58155  1.0000 -1.0020886923
O   O8        1.0  0.52921  0.43191  0.58155  1.0000 -1.0020886923
O   O9        1.0  0.64050  0.39690  0.36606  1.0000 -0.5694335664
O   O10       1.0  0.10310  0.14050  0.86606  1.0000 -0.5694335664
O   O11       1.0  0.35950  0.60310  0.36606  1.0000 -0.5694335664
O   O12       1.0  0.89690  0.85950  0.86606  1.0000 -0.5694335664
O   O13       1.0  0.14050  0.10310  0.13394  1.0000 -0.5694335664
O   O14       1.0  0.85950  0.89690  0.13394  1.0000 -0.5694335664
O   O15       1.0  0.39690  0.64050  0.63394  1.0000 -0.5694335664
O   O16       1.0  0.60310  0.35950  0.63394  1.0000 -0.5694335664
O   O17       1.0  0.60068  0.36476  0.46506  1.0000 -1.0053867067
O   O18       1.0  0.13524  0.10068  0.96506  1.0000 -1.0053867067
O   O19       1.0  0.39932  0.63524  0.46506  1.0000 -1.0053867067
O   O20       1.0  0.86476  0.89932  0.96506  1.0000 -1.0053867067
O   O21       1.0  0.10068  0.13524  0.03494  1.0000 -1.0053867067
O   O22       1.0  0.89932  0.86476  0.03494  1.0000 -1.0053867067
O   O23       1.0  0.36476  0.60068  0.53494  1.0000 -1.0053867067
O   O24       1.0  0.63524  0.39932  0.53494  1.0000 -1.0053867067
O   O25       1.0  0.55770  0.47160  0.34611  1.0000 -0.5860426391
O   O26       1.0  0.02840  0.05770  0.84611  1.0000 -0.5860426391
O   O27       1.0  0.44230  0.52840  0.34611  1.0000 -0.5860426391
O   O28       1.0  0.97160  0.94230  0.84611  1.0000 -0.5860426391
O   O29       1.0  0.05770  0.02840  0.15389  1.0000 -0.5860426391
O   O30       1.0  0.94230  0.97160  0.15389  1.0000 -0.5860426391
O   O31       1.0  0.47160  0.55770  0.65389  1.0000 -0.5860426391
O   O32       1.0  0.52840  0.44230  0.65389  1.0000 -0.5860426391
O   O33       1.0  0.82630  0.80480  0.08806  1.0000 -0.5806587304
O   O34       1.0  0.69520  0.32630  0.58806  1.0000 -0.5806587304
O   O35       1.0  0.17370  0.19520  0.08806  1.0000 -0.5806587304
O   O36       1.0  0.30480  0.67370  0.58806  1.0000 -0.5806587304
O   O37       1.0  0.32630  0.69520  0.41194  1.0000 -0.5806587304
O   O38       1.0  0.67370  0.30480  0.41194  1.0000 -0.5806587304
O   O39       1.0  0.80480  0.82630  0.91194  1.0000 -0.5806587304
O   O40       1.0  0.19520  0.17370  0.91194  1.0000 -0.5806587304
O   O41       1.0  0.73480  0.39480  0.48146  1.0000 -0.549544316
O   O42       1.0  0.10520  0.23480  0.98146  1.0000 -0.549544316
O   O43       1.0  0.26520  0.60520  0.48146  1.0000 -0.549544316
O   O44       1.0  0.89480  0.76520  0.98146  1.0000 -0.549544316
O   O45       1.0  0.23480  0.10520  0.01854  1.0000 -0.549544316
O   O46       1.0  0.76520  0.89480  0.01854  1.0000 -0.549544316
O   O47       1.0  0.39480  0.73480  0.51854  1.0000 -0.549544316
O   O48       1.0  0.60520  0.26520  0.51854  1.0000 -0.549544316
O   O49       1.0  0.03960  0.16630  0.09719  1.0000 -0.6165451373
O   O50       1.0  0.33370  0.53960  0.59719  1.0000 -0.6165451373
O   O51       1.0  0.96040  0.83370  0.09719  1.0000 -0.6165451373
O   O52       1.0  0.66630  0.46040  0.59719  1.0000 -0.6165451373
O   O53       1.0  0.53960  0.33370  0.40281  1.0000 -0.6165451373
O   O54       1.0  0.46040  0.66630  0.40281  1.0000 -0.6165451373
O   O55       1.0  0.16630  0.03960  0.90281  1.0000 -0.6165451373
O   O56       1.0  0.83370  0.96040  0.90281  1.0000 -0.6165451373
O   O57       1.0  0.95760  0.08970  0.11619  1.0000 -0.561564442
O   O58       1.0  0.41030  0.45760  0.61619  1.0000 -0.561564442
O   O59       1.0  0.04240  0.91030  0.11619  1.0000 -0.561564442
O   O60       1.0  0.58970  0.54240  0.61619  1.0000 -0.561564442
O   O61       1.0  0.45760  0.41030  0.38381  1.0000 -0.561564442
O   O62       1.0  0.54240  0.58970  0.38381  1.0000 -0.561564442
O   O63       1.0  0.08970  0.95760  0.88381  1.0000 -0.561564442
O   O64       1.0  0.91030  0.04240  0.88381  1.0000 -0.561564442
O   O65       1.0  0.70460  0.43520  0.42579  1.0000 -0.6114914383
O   O66       1.0  0.06480  0.20460  0.92579  1.0000 -0.6114914383
O   O67       1.0  0.29540  0.56480  0.42579  1.0000 -0.6114914383
O   O68       1.0  0.93520  0.79540  0.92579  1.0000 -0.6114914383
O   O69       1.0  0.20460  0.06480  0.07421  1.0000 -0.6114914383
O   O70       1.0  0.79540  0.93520  0.07421  1.0000 -0.6114914383
O   O71       1.0  0.43520  0.70460  0.57421  1.0000 -0.6114914383
O   O72       1.0  0.56480  0.29540  0.57421  1.0000 -0.6114914383
O   O73       1.0  0.80110  0.76190  0.03226  1.0000 -0.549544316
O   O74       1.0  0.73810  0.30110  0.53226  1.0000 -0.549544316
O   O75       1.0  0.19890  0.23810  0.03226  1.0000 -0.549544316
O   O76       1.0  0.26190  0.69890  0.53226  1.0000 -0.549544316
O   O77       1.0  0.30110  0.73810  0.46774  1.0000 -0.549544316
O   O78       1.0  0.69890  0.26190  0.46774  1.0000 -0.549544316
O   O79       1.0  0.76190  0.80110  0.96774  1.0000 -0.549544316
O   O80       1.0  0.23810  0.19890  0.96774  1.0000 -0.549544316
