# DDEC6 charges by PACMAN v1.1 (https://github.com/mtap-research/PACMAN-charge/)
data_ja9b10501_si_022_ASR_pacman
_symmetry_space_group_name_H-M   'P 1'
_cell_length_a   19.37500000
_cell_length_b   19.37500000
_cell_length_c   35.81590000
_cell_angle_alpha   90.00000000
_cell_angle_beta   90.00000000
_cell_angle_gamma   90.00000000
_symmetry_Int_Tables_number   1
_chemical_formula_structural   Al16H213.6C293.6N13.92O84.64
_chemical_formula_sum   'Al16 H213.6 C293.6 N13.92 O84.64'
_cell_volume   13444.95308594
_cell_formula_units_Z   1
loop_
 _symmetry_equiv_pos_site_id
 _symmetry_equiv_pos_as_xyz
  1  'x, y, z'
loop_
 _atom_site_type_symbol
 _atom_site_label
 _atom_site_symmetry_multiplicity
 _atom_site_fract_x
 _atom_site_fract_y
 _atom_site_fract_z
 _atom_site_occupancy
 _atom_site_charge
Al  Al1  1  0.38027000  0.60427000  0.58185000  1.0 1.4231308497
Al  Al2  1  0.61973000  0.39573000  0.58185000  1.0 1.4231308497
Al  Al3  1  0.89573000  0.88027000  0.08185000  1.0 1.4231308497
Al  Al4  1  0.10427000  0.11973000  0.08185000  1.0 1.4231308497
Al  Al5  1  0.11973000  0.10427000  0.91815000  1.0 1.4231308497
Al  Al6  1  0.88027000  0.89573000  0.91815000  1.0 1.4231308497
Al  Al7  1  0.60427000  0.38027000  0.41815000  1.0 1.4231308497
Al  Al8  1  0.39573000  0.61973000  0.41815000  1.0 1.4231308497
Al  Al9  1  0.33943000  0.66057000  0.50000000  1.0 1.2098915226
Al  Al10  1  0.66057000  0.33943000  0.50000000  1.0 1.2098915226
Al  Al11  1  0.83943000  0.83943000  0.00000000  1.0 1.2098915226
Al  Al12  1  0.16057000  0.16057000  0.00000000  1.0 1.2098915226
Al  Al13  1  0.50000000  0.50000000  0.61548000  1.0 1.6512014514
Al  Al14  1  0.00000000  0.00000000  0.11548000  1.0 1.6512014514
Al  Al15  1  0.00000000  0.00000000  0.88452000  1.0 1.6512014514
Al  Al16  1  0.50000000  0.50000000  0.38452000  1.0 1.6512014514
H  H1  1  0.45048000  0.63184000  0.52772000  1.0 0.4029281421
H  H2  1  0.43144000  0.49878000  0.55870000  1.0 0.4057871944
H  H3  1  0.14283000  0.84458000  0.86118000  1.0 0.1267886649
H  H4  1  0.20863000  0.74892000  0.84494000  1.0 0.1119032772
H  H5  1  0.20702000  0.36148000  0.95998000  1.0 0.1119032772
H  H6  1  0.21698000  0.46749000  0.92919000  1.0 0.1119032772
H  H7  1  0.21534000  0.62024000  0.73695000  1.0 0.118308447
H  H8  1  0.42014000  0.49729000  0.72074000  1.0 0.118308447
H  H9  1  0.18624000  0.26273000  0.86158000  1.0 0.118308447
H  H10  1  0.26497000  0.61324000  0.67865000  1.0 0.1267886649
H  H11  1  0.36658000  0.50010000  0.77925000  1.0 0.1119032772
H  H12  1  0.98790000  0.71851000  0.89482000  1.0 0.1119032772
H  H13  1  0.19465000  0.36867000  0.83012000  1.0 0.1009073911
H  H14  1  0.15559000  0.55209000  0.89218000  1.0 0.118308447
H  H15  1  0.21123000  0.65723000  0.79953000  1.0 0.1119032772
H  H16  1  0.05588000  0.62264000  0.87957000  1.0 0.1119032772
H  H17  1  0.27187000  0.45869000  0.81376000  1.0 0.1009073911
H  H18  1  0.54952000  0.36816000  0.52772000  1.0 0.4029281421
H  H19  1  0.56856000  0.50122000  0.55870000  1.0 0.4057871944
H  H20  1  0.85717000  0.15542000  0.86118000  1.0 0.1267886649
H  H21  1  0.79137000  0.25108000  0.84494000  1.0 0.1119032772
H  H22  1  0.79298000  0.63852000  0.95998000  1.0 0.1119032772
H  H23  1  0.78302000  0.53251000  0.92919000  1.0 0.1119032772
H  H24  1  0.78466000  0.37976000  0.73695000  1.0 0.118308447
H  H25  1  0.57986000  0.50271000  0.72074000  1.0 0.118308447
H  H26  1  0.81376000  0.73727000  0.86158000  1.0 0.118308447
H  H27  1  0.73503000  0.38676000  0.67865000  1.0 0.1267886649
H  H28  1  0.63342000  0.49990000  0.77925000  1.0 0.1119032772
H  H29  1  0.01210000  0.28149000  0.89482000  1.0 0.1119032772
H  H30  1  0.80535000  0.63133000  0.83012000  1.0 0.1009073911
H  H31  1  0.84441000  0.44791000  0.89218000  1.0 0.118308447
H  H32  1  0.78877000  0.34277000  0.79953000  1.0 0.1119032772
H  H33  1  0.94412000  0.37736000  0.87957000  1.0 0.1119032772
H  H34  1  0.72813000  0.54131000  0.81376000  1.0 0.1009073911
H  H35  1  0.86816000  0.95048000  0.02772000  1.0 0.4029281421
H  H36  1  0.00122000  0.93144000  0.05870000  1.0 0.4057871944
H  H37  1  0.65542000  0.64283000  0.36118000  1.0 0.1267886649
H  H38  1  0.75108000  0.70863000  0.34494000  1.0 0.1119032772
H  H39  1  0.13852000  0.70702000  0.45998000  1.0 0.118308447
H  H40  1  0.03251000  0.71698000  0.42919000  1.0 0.1119032772
H  H41  1  0.87976000  0.71534000  0.23695000  1.0 0.118308447
H  H42  1  0.00271000  0.92014000  0.22074000  1.0 0.118308447
H  H43  1  0.23727000  0.68624000  0.36158000  1.0 0.118308447
H  H44  1  0.88676000  0.76497000  0.17865000  1.0 0.1267886649
H  H45  1  0.99990000  0.86658000  0.27925000  1.0 0.1119032772
H  H46  1  0.78149000  0.48790000  0.39482000  1.0 0.1119032772
H  H47  1  0.13133000  0.69465000  0.33012000  1.0 0.1009073911
H  H48  1  0.94791000  0.65559000  0.39218000  1.0 0.118308447
H  H49  1  0.84277000  0.71123000  0.29953000  1.0 0.1119032772
H  H50  1  0.87736000  0.55588000  0.37957000  1.0 0.1119032772
H  H51  1  0.04131000  0.77187000  0.31376000  1.0 0.1009073911
H  H52  1  0.13184000  0.04952000  0.02772000  1.0 0.4029281421
H  H53  1  0.99878000  0.06856000  0.05870000  1.0 0.4057871944
H  H54  1  0.34458000  0.35717000  0.36118000  1.0 0.1267886649
H  H55  1  0.24892000  0.29137000  0.34494000  1.0 0.1119032772
H  H56  1  0.86148000  0.29298000  0.45998000  1.0 0.118308447
H  H57  1  0.96749000  0.28302000  0.42919000  1.0 0.1119032772
H  H58  1  0.12024000  0.28466000  0.23695000  1.0 0.118308447
H  H59  1  0.99729000  0.07986000  0.22074000  1.0 0.118308447
H  H60  1  0.76273000  0.31376000  0.36158000  1.0 0.118308447
H  H61  1  0.11324000  0.23503000  0.17865000  1.0 0.1267886649
H  H62  1  0.00010000  0.13342000  0.27925000  1.0 0.1119032772
H  H63  1  0.21851000  0.51210000  0.39482000  1.0 0.1119032772
H  H64  1  0.86867000  0.30535000  0.33012000  1.0 0.1009073911
H  H65  1  0.05209000  0.34441000  0.39218000  1.0 0.118308447
H  H66  1  0.15723000  0.28877000  0.29953000  1.0 0.1119032772
H  H67  1  0.12264000  0.44412000  0.37957000  1.0 0.1119032772
H  H68  1  0.95869000  0.22813000  0.31376000  1.0 0.1009073911
H  H69  1  0.04952000  0.13184000  0.97228000  1.0 0.4029281421
H  H70  1  0.06856000  0.99878000  0.94130000  1.0 0.4057871944
H  H71  1  0.35717000  0.34458000  0.63882000  1.0 0.1267886649
H  H72  1  0.29137000  0.24892000  0.65506000  1.0 0.1119032772
H  H73  1  0.29298000  0.86148000  0.54002000  1.0 0.1119032772
H  H74  1  0.28302000  0.96749000  0.57081000  1.0 0.1119032772
H  H75  1  0.28466000  0.12024000  0.76305000  1.0 0.118308447
H  H76  1  0.07986000  0.99729000  0.77926000  1.0 0.118308447
H  H77  1  0.31376000  0.76273000  0.63842000  1.0 0.118308447
H  H78  1  0.23503000  0.11324000  0.82135000  1.0 0.1267886649
H  H79  1  0.13342000  0.00010000  0.72075000  1.0 0.1119032772
H  H80  1  0.51210000  0.21851000  0.60518000  1.0 0.1119032772
H  H81  1  0.30535000  0.86867000  0.66988000  1.0 0.1009073911
H  H82  1  0.34441000  0.05209000  0.60782000  1.0 0.118308447
H  H83  1  0.28877000  0.15723000  0.70047000  1.0 0.1119032772
H  H84  1  0.44412000  0.12264000  0.62043000  1.0 0.1119032772
H  H85  1  0.22813000  0.95869000  0.68624000  1.0 0.1009073911
H  H86  1  0.95048000  0.86816000  0.97228000  1.0 0.4029281421
H  H87  1  0.93144000  0.00122000  0.94130000  1.0 0.4057871944
H  H88  1  0.64283000  0.65542000  0.63882000  1.0 0.1267886649
H  H89  1  0.70863000  0.75108000  0.65506000  1.0 0.1119032772
H  H90  1  0.70702000  0.13852000  0.54002000  1.0 0.1119032772
H  H91  1  0.71698000  0.03251000  0.57081000  1.0 0.1119032772
H  H92  1  0.71534000  0.87976000  0.76305000  1.0 0.118308447
H  H93  1  0.92014000  0.00271000  0.77926000  1.0 0.118308447
H  H94  1  0.68624000  0.23727000  0.63842000  1.0 0.118308447
H  H95  1  0.76497000  0.88676000  0.82135000  1.0 0.1267886649
H  H96  1  0.86658000  0.99990000  0.72075000  1.0 0.1119032772
H  H97  1  0.48790000  0.78149000  0.60518000  1.0 0.1119032772
H  H98  1  0.69465000  0.13133000  0.66988000  1.0 0.1009073911
H  H99  1  0.65559000  0.94791000  0.60782000  1.0 0.118308447
H  H100  1  0.71123000  0.84277000  0.70047000  1.0 0.1119032772
H  H101  1  0.55588000  0.87736000  0.62043000  1.0 0.1119032772
H  H102  1  0.77187000  0.04131000  0.68624000  1.0 0.1009073911
H  H103  1  0.63184000  0.45048000  0.47228000  1.0 0.4029281421
H  H104  1  0.49878000  0.43144000  0.44130000  1.0 0.4057871944
H  H105  1  0.84458000  0.14283000  0.13882000  1.0 0.1267886649
H  H106  1  0.74892000  0.20863000  0.15506000  1.0 0.1119032772
H  H107  1  0.36148000  0.20702000  0.04002000  1.0 0.118308447
H  H108  1  0.46749000  0.21698000  0.07081000  1.0 0.1119032772
H  H109  1  0.62024000  0.21534000  0.26305000  1.0 0.118308447
H  H110  1  0.49729000  0.42014000  0.27926000  1.0 0.118308447
H  H111  1  0.26273000  0.18624000  0.13842000  1.0 0.118308447
H  H112  1  0.61324000  0.26497000  0.32135000  1.0 0.1267886649
H  H113  1  0.50010000  0.36658000  0.22075000  1.0 0.1119032772
H  H114  1  0.71851000  0.98790000  0.10518000  1.0 0.1119032772
H  H115  1  0.36867000  0.19465000  0.16988000  1.0 0.1009073911
H  H116  1  0.55209000  0.15559000  0.10782000  1.0 0.118308447
H  H117  1  0.65723000  0.21123000  0.20047000  1.0 0.1119032772
H  H118  1  0.62264000  0.05588000  0.12043000  1.0 0.1119032772
H  H119  1  0.45869000  0.27187000  0.18624000  1.0 0.1009073911
H  H120  1  0.36816000  0.54952000  0.47228000  1.0 0.4029281421
H  H121  1  0.50122000  0.56856000  0.44130000  1.0 0.4057871944
H  H122  1  0.15542000  0.85717000  0.13882000  1.0 0.1267886649
H  H123  1  0.25108000  0.79137000  0.15506000  1.0 0.1119032772
H  H124  1  0.63852000  0.79298000  0.04002000  1.0 0.1119032772
H  H125  1  0.53251000  0.78302000  0.07081000  1.0 0.1119032772
H  H126  1  0.37976000  0.78466000  0.26305000  1.0 0.118308447
H  H127  1  0.50271000  0.57986000  0.27926000  1.0 0.118308447
H  H128  1  0.73727000  0.81376000  0.13842000  1.0 0.118308447
H  H129  1  0.38676000  0.73503000  0.32135000  1.0 0.1267886649
H  H130  1  0.49990000  0.63342000  0.22075000  1.0 0.1119032772
H  H131  1  0.28149000  0.01210000  0.10518000  1.0 0.1119032772
H  H132  1  0.63133000  0.80535000  0.16988000  1.0 0.1009073911
H  H133  1  0.44791000  0.84441000  0.10782000  1.0 0.118308447
H  H134  1  0.34277000  0.78877000  0.20047000  1.0 0.1119032772
H  H135  1  0.37736000  0.94412000  0.12043000  1.0 0.1119032772
H  H136  1  0.54131000  0.72813000  0.18624000  1.0 0.1009073911
H  H137  1  0.21171000  0.55472000  0.47970000  0.29 0.07069996
H  H138  1  0.27446000  0.49914000  0.62828000  0.29 0.0813918176
H  H139  1  0.29176000  0.43144000  0.60391000  0.29 0.0813918176
H  H140  1  0.14135000  0.45900000  0.59655000  0.29 0.1009073911
H  H141  1  0.28146000  0.41880000  0.58736000  0.29 0.0813918176
H  H142  1  0.25229000  0.47896000  0.61400000  0.29 0.0485290551
H  H143  1  0.16184000  0.48640000  0.62326000  0.29 0.0609685069
H  H144  1  0.20150000  0.43190000  0.65974000  0.29 0.1009073911
H  H145  1  0.11170000  0.21146000  0.63754000  0.29 0.0897173687
H  H146  1  0.10139000  0.23948000  0.57072000  0.29 0.1009073911
H  H147  1  0.17783000  0.26730000  0.56235000  0.29 0.07069996
H  H148  1  0.10009000  0.25723000  0.67138000  0.29 0.1119032772
H  H149  1  0.25481000  0.44219000  0.67900000  0.29 0.07069996
H  H150  1  0.09576000  0.32599000  0.52329000  0.29 0.1009073911
H  H151  1  0.05598000  0.35328000  0.55975000  0.29 0.07069996
H  H152  1  0.14542000  0.30365000  0.58514000  0.29 0.0897173687
H  H153  1  0.07281000  0.28029000  0.60433000  0.29 0.0813918176
H  H154  1  0.04025000  0.38680000  0.57780000  0.29 0.07069996
H  H155  1  0.06223000  0.40972000  0.61937000  0.29 0.0897173687
H  H156  1  0.18411000  0.58579000  0.50235000  0.29 0.07069996
H  H157  1  0.32587000  0.35356000  0.77022000  0.29 0.1119032772
H  H158  1  0.28917000  0.28988000  0.74983000  0.29 0.1119032772
H  H159  1  0.33793000  0.34081000  0.72656000  0.29 0.118308447
H  H160  1  0.08717000  0.14486000  0.72271000  0.29 0.0897173687
H  H161  1  0.05691000  0.17327000  0.68408000  0.29 0.1009073911
H  H162  1  0.13254000  0.14017000  0.68546000  0.29 0.1119032772
H  H163  1  0.18761000  0.43123000  0.75437000  0.29 0.1455741769
H  H164  1  0.22800000  0.43635000  0.71549000  0.29 0.1119032772
H  H165  1  0.14597000  0.44584000  0.71660000  0.29 0.07069996
H  H166  1  0.11643000  0.19436000  0.76393000  0.29 0.0813918176
H  H167  1  0.06870000  0.24285000  0.73859000  0.29 0.1009073911
H  H168  1  0.11507000  0.18421000  0.71959000  0.29 0.118308447
H  H169  1  0.78829000  0.44528000  0.47970000  0.29 0.07069996
H  H170  1  0.72554000  0.50086000  0.62828000  0.29 0.0813918176
H  H171  1  0.70824000  0.56856000  0.60391000  0.29 0.0813918176
H  H172  1  0.85865000  0.54100000  0.59655000  0.29 0.1009073911
H  H173  1  0.71854000  0.58120000  0.58736000  0.29 0.0813918176
H  H174  1  0.74771000  0.52104000  0.61400000  0.29 0.0485290551
H  H175  1  0.83816000  0.51360000  0.62326000  0.29 0.0609685069
H  H176  1  0.79850000  0.56810000  0.65974000  0.29 0.1009073911
H  H177  1  0.88830000  0.78854000  0.63754000  0.29 0.0897173687
H  H178  1  0.89861000  0.76052000  0.57072000  0.29 0.1009073911
H  H179  1  0.82217000  0.73270000  0.56235000  0.29 0.0813918176
H  H180  1  0.89991000  0.74277000  0.67138000  0.29 0.1119032772
H  H181  1  0.74519000  0.55781000  0.67900000  0.29 0.07069996
H  H182  1  0.90424000  0.67401000  0.52329000  0.29 0.1009073911
H  H183  1  0.94402000  0.64672000  0.55975000  0.29 0.07069996
H  H184  1  0.85458000  0.69635000  0.58514000  0.29 0.0897173687
H  H185  1  0.92719000  0.71971000  0.60433000  0.29 0.0897173687
H  H186  1  0.95975000  0.61320000  0.57780000  0.29 0.07069996
H  H187  1  0.93777000  0.59028000  0.61937000  0.29 0.0897173687
H  H188  1  0.81589000  0.41421000  0.50235000  0.29 0.07069996
H  H189  1  0.67413000  0.64644000  0.77022000  0.29 0.1119032772
H  H190  1  0.71083000  0.71012000  0.74983000  0.29 0.1119032772
H  H191  1  0.66207000  0.65919000  0.72656000  0.29 0.118308447
H  H192  1  0.91283000  0.85514000  0.72271000  0.29 0.0897173687
H  H193  1  0.94309000  0.82673000  0.68408000  0.29 0.1009073911
H  H194  1  0.86746000  0.85983000  0.68546000  0.29 0.1119032772
H  H195  1  0.81239000  0.56877000  0.75437000  0.29 0.1455741769
H  H196  1  0.77200000  0.56365000  0.71549000  0.29 0.1119032772
H  H197  1  0.85403000  0.55416000  0.71660000  0.29 0.07069996
H  H198  1  0.88357000  0.80564000  0.76393000  0.29 0.0813918176
H  H199  1  0.93130000  0.75715000  0.73859000  0.29 0.1009073911
H  H200  1  0.88493000  0.81579000  0.71959000  0.29 0.118308447
H  H201  1  0.94528000  0.71171000  0.97970000  0.29 0.07069996
H  H202  1  0.00086000  0.77446000  0.12828000  0.29 0.0813918176
H  H203  1  0.06856000  0.79176000  0.10391000  0.29 0.0813918176
H  H204  1  0.04100000  0.64135000  0.09655000  0.29 0.1009073911
H  H205  1  0.08120000  0.78146000  0.08736000  0.29 0.0813918176
H  H206  1  0.02104000  0.75229000  0.11400000  0.29 0.0485290551
H  H207  1  0.01360000  0.66184000  0.12326000  0.29 0.0609685069
H  H208  1  0.06810000  0.70150000  0.15974000  0.29 0.1009073911
H  H209  1  0.28854000  0.61170000  0.13754000  0.29 0.0813918176
H  H210  1  0.26052000  0.60139000  0.07072000  0.29 0.1009073911
H  H211  1  0.23270000  0.67783000  0.06235000  0.29 0.07069996
H  H212  1  0.24277000  0.60009000  0.17138000  0.29 0.1119032772
H  H213  1  0.05781000  0.75481000  0.17900000  0.29 0.07069996
H  H214  1  0.17401000  0.59576000  0.02329000  0.29 0.1009073911
H  H215  1  0.14672000  0.55598000  0.05975000  0.29 0.07069996
H  H216  1  0.19635000  0.64542000  0.08514000  0.29 0.0897173687
H  H217  1  0.21971000  0.57281000  0.10433000  0.29 0.0813918176
H  H218  1  0.11320000  0.54025000  0.07780000  0.29 0.07069996
H  H219  1  0.09028000  0.56223000  0.11937000  0.29 0.0897173687
H  H220  1  0.91421000  0.68411000  0.00235000  0.29 0.07069996
H  H221  1  0.14644000  0.82587000  0.27022000  0.29 0.118308447
H  H222  1  0.21012000  0.78917000  0.24983000  0.29 0.1119032772
H  H223  1  0.15919000  0.83793000  0.22656000  0.29 0.118308447
H  H224  1  0.35514000  0.58717000  0.22271000  0.29 0.0897173687
H  H225  1  0.32673000  0.55691000  0.18408000  0.29 0.1009073911
H  H226  1  0.35983000  0.63254000  0.18546000  0.29 0.1119032772
H  H227  1  0.06877000  0.68761000  0.25437000  0.29 0.1455741769
H  H228  1  0.06365000  0.72800000  0.21549000  0.29 0.1119032772
H  H229  1  0.05416000  0.64597000  0.21660000  0.29 0.07069996
H  H230  1  0.30564000  0.61643000  0.26393000  0.29 0.0813918176
H  H231  1  0.25715000  0.56870000  0.23859000  0.29 0.1009073911
H  H232  1  0.31579000  0.61507000  0.21959000  0.29 0.118308447
H  H233  1  0.05472000  0.28829000  0.97970000  0.29 0.07069996
H  H234  1  0.99914000  0.22554000  0.12828000  0.29 0.0813918176
H  H235  1  0.93144000  0.20824000  0.10391000  0.29 0.0813918176
H  H236  1  0.95900000  0.35865000  0.09655000  0.29 0.1009073911
H  H237  1  0.91880000  0.21854000  0.08736000  0.29 0.0813918176
H  H238  1  0.97896000  0.24771000  0.11400000  0.29 0.0485290551
H  H239  1  0.98640000  0.33816000  0.12326000  0.29 0.0609685069
H  H240  1  0.93190000  0.29850000  0.15974000  0.29 0.1009073911
H  H241  1  0.71146000  0.38830000  0.13754000  0.29 0.0813918176
H  H242  1  0.73948000  0.39861000  0.07072000  0.29 0.1009073911
H  H243  1  0.76730000  0.32217000  0.06235000  0.29 0.0813918176
H  H244  1  0.75723000  0.39991000  0.17138000  0.29 0.1119032772
H  H245  1  0.94219000  0.24519000  0.17900000  0.29 0.07069996
H  H246  1  0.82599000  0.40424000  0.02329000  0.29 0.1009073911
H  H247  1  0.85328000  0.44402000  0.05975000  0.29 0.07069996
H  H248  1  0.80365000  0.35458000  0.08514000  0.29 0.0897173687
H  H249  1  0.78029000  0.42719000  0.10433000  0.29 0.0813918176
H  H250  1  0.88680000  0.45975000  0.07780000  0.29 0.07069996
H  H251  1  0.90972000  0.43777000  0.11937000  0.29 0.0897173687
H  H252  1  0.08579000  0.31589000  0.00235000  0.29 0.07069996
H  H253  1  0.85356000  0.17413000  0.27022000  0.29 0.118308447
H  H254  1  0.78988000  0.21083000  0.24983000  0.29 0.1119032772
H  H255  1  0.84081000  0.16207000  0.22656000  0.29 0.118308447
H  H256  1  0.64486000  0.41283000  0.22271000  0.29 0.0897173687
H  H257  1  0.67327000  0.44309000  0.18408000  0.29 0.1009073911
H  H258  1  0.64017000  0.36746000  0.18546000  0.29 0.1119032772
H  H259  1  0.93123000  0.31239000  0.25437000  0.29 0.1455741769
H  H260  1  0.93635000  0.27200000  0.21549000  0.29 0.1119032772
H  H261  1  0.94584000  0.35403000  0.21660000  0.29 0.07069996
H  H262  1  0.69436000  0.38357000  0.26393000  0.29 0.0813918176
H  H263  1  0.74285000  0.43130000  0.23859000  0.29 0.1009073911
H  H264  1  0.68421000  0.38493000  0.21959000  0.29 0.118308447
H  H265  1  0.28829000  0.05472000  0.02030000  0.29 0.07069996
H  H266  1  0.22554000  0.99914000  0.87172000  0.29 0.0813918176
H  H267  1  0.20824000  0.93144000  0.89609000  0.29 0.0813918176
H  H268  1  0.35865000  0.95900000  0.90345000  0.29 0.1009073911
H  H269  1  0.21854000  0.91880000  0.91264000  0.29 0.0813918176
H  H270  1  0.24771000  0.97896000  0.88600000  0.29 0.0485290551
H  H271  1  0.33816000  0.98640000  0.87674000  0.29 0.0609685069
H  H272  1  0.29850000  0.93190000  0.84026000  0.29 0.1009073911
H  H273  1  0.38830000  0.71146000  0.86246000  0.29 0.0897173687
H  H274  1  0.39861000  0.73948000  0.92928000  0.29 0.1009073911
H  H275  1  0.32217000  0.76730000  0.93765000  0.29 0.0813918176
H  H276  1  0.39991000  0.75723000  0.82862000  0.29 0.1119032772
H  H277  1  0.24519000  0.94219000  0.82100000  0.29 0.07069996
H  H278  1  0.40424000  0.82599000  0.97671000  0.29 0.1119032772
H  H279  1  0.44402000  0.85328000  0.94025000  0.29 0.07069996
H  H280  1  0.35458000  0.80365000  0.91486000  0.29 0.0897173687
H  H281  1  0.42719000  0.78029000  0.89567000  0.29 0.0813918176
H  H282  1  0.45975000  0.88680000  0.92220000  0.29 0.07069996
H  H283  1  0.43777000  0.90972000  0.88063000  0.29 0.0897173687
H  H284  1  0.31589000  0.08579000  0.99765000  0.29 0.07069996
H  H285  1  0.17413000  0.85356000  0.72978000  0.29 0.1119032772
H  H286  1  0.21083000  0.78988000  0.75017000  0.29 0.1119032772
H  H287  1  0.16207000  0.84081000  0.77344000  0.29 0.118308447
H  H288  1  0.41283000  0.64486000  0.77729000  0.29 0.0897173687
H  H289  1  0.44309000  0.67327000  0.81592000  0.29 0.1009073911
H  H290  1  0.36746000  0.64017000  0.81454000  0.29 0.1119032772
H  H291  1  0.31239000  0.93123000  0.74563000  0.29 0.1455741769
H  H292  1  0.27200000  0.93635000  0.78451000  0.29 0.1119032772
H  H293  1  0.35403000  0.94584000  0.78340000  0.29 0.07069996
H  H294  1  0.38357000  0.69436000  0.73607000  0.29 0.0813918176
H  H295  1  0.43130000  0.74285000  0.76141000  0.29 0.1009073911
H  H296  1  0.38493000  0.68421000  0.78041000  0.29 0.118308447
H  H297  1  0.71171000  0.94528000  0.02030000  0.29 0.07069996
H  H298  1  0.77446000  0.00086000  0.87172000  0.29 0.0813918176
H  H299  1  0.79176000  0.06856000  0.89609000  0.29 0.0813918176
H  H300  1  0.64135000  0.04100000  0.90345000  0.29 0.1009073911
H  H301  1  0.78146000  0.08120000  0.91264000  0.29 0.0813918176
H  H302  1  0.75229000  0.02104000  0.88600000  0.29 0.0485290551
H  H303  1  0.66184000  0.01360000  0.87674000  0.29 0.0609685069
H  H304  1  0.70150000  0.06810000  0.84026000  0.29 0.1009073911
H  H305  1  0.61170000  0.28854000  0.86246000  0.29 0.0897173687
H  H306  1  0.60139000  0.26052000  0.92928000  0.29 0.1009073911
H  H307  1  0.67783000  0.23270000  0.93765000  0.29 0.0813918176
H  H308  1  0.60009000  0.24277000  0.82862000  0.29 0.1119032772
H  H309  1  0.75481000  0.05781000  0.82100000  0.29 0.07069996
H  H310  1  0.59576000  0.17401000  0.97671000  0.29 0.1119032772
H  H311  1  0.55598000  0.14672000  0.94025000  0.29 0.07069996
H  H312  1  0.64542000  0.19635000  0.91486000  0.29 0.0897173687
H  H313  1  0.57281000  0.21971000  0.89567000  0.29 0.0813918176
H  H314  1  0.54025000  0.11320000  0.92220000  0.29 0.07069996
H  H315  1  0.56223000  0.09028000  0.88063000  0.29 0.0897173687
H  H316  1  0.68411000  0.91421000  0.99765000  0.29 0.07069996
H  H317  1  0.82587000  0.14644000  0.72978000  0.29 0.1119032772
H  H318  1  0.78917000  0.21012000  0.75017000  0.29 0.1119032772
H  H319  1  0.83793000  0.15919000  0.77344000  0.29 0.118308447
H  H320  1  0.58717000  0.35514000  0.77729000  0.29 0.0897173687
H  H321  1  0.55691000  0.32673000  0.81592000  0.29 0.1009073911
H  H322  1  0.63254000  0.35983000  0.81454000  0.29 0.1119032772
H  H323  1  0.68761000  0.06877000  0.74563000  0.29 0.1455741769
H  H324  1  0.72800000  0.06365000  0.78451000  0.29 0.1119032772
H  H325  1  0.64597000  0.05416000  0.78340000  0.29 0.07069996
H  H326  1  0.61643000  0.30564000  0.73607000  0.29 0.0813918176
H  H327  1  0.56870000  0.25715000  0.76141000  0.29 0.1009073911
H  H328  1  0.61507000  0.31579000  0.78041000  0.29 0.118308447
H  H329  1  0.55472000  0.21171000  0.52030000  0.29 0.07069996
H  H330  1  0.49914000  0.27446000  0.37172000  0.29 0.0813918176
H  H331  1  0.43144000  0.29176000  0.39609000  0.29 0.0813918176
H  H332  1  0.45900000  0.14135000  0.40345000  0.29 0.1009073911
H  H333  1  0.41880000  0.28146000  0.41264000  0.29 0.0813918176
H  H334  1  0.47896000  0.25229000  0.38600000  0.29 0.0485290551
H  H335  1  0.48640000  0.16184000  0.37674000  0.29 0.0609685069
H  H336  1  0.43190000  0.20150000  0.34026000  0.29 0.1009073911
H  H337  1  0.21146000  0.11170000  0.36246000  0.29 0.0897173687
H  H338  1  0.23948000  0.10139000  0.42928000  0.29 0.1009073911
H  H339  1  0.26730000  0.17783000  0.43765000  0.29 0.07069996
H  H340  1  0.25723000  0.10009000  0.32862000  0.29 0.1119032772
H  H341  1  0.44219000  0.25481000  0.32100000  0.29 0.07069996
H  H342  1  0.32599000  0.09576000  0.47671000  0.29 0.1009073911
H  H343  1  0.35328000  0.05598000  0.44025000  0.29 0.07069996
H  H344  1  0.30365000  0.14542000  0.41486000  0.29 0.0897173687
H  H345  1  0.28029000  0.07281000  0.39567000  0.29 0.0813918176
H  H346  1  0.38680000  0.04025000  0.42220000  0.29 0.07069996
H  H347  1  0.40972000  0.06223000  0.38063000  0.29 0.0897173687
H  H348  1  0.58579000  0.18411000  0.49765000  0.29 0.07069996
H  H349  1  0.35356000  0.32587000  0.22978000  0.29 0.1119032772
H  H350  1  0.28988000  0.28917000  0.25017000  0.29 0.1119032772
H  H351  1  0.34081000  0.33793000  0.27344000  0.29 0.118308447
H  H352  1  0.14486000  0.08717000  0.27729000  0.29 0.0897173687
H  H353  1  0.17327000  0.05691000  0.31592000  0.29 0.1009073911
H  H354  1  0.14017000  0.13254000  0.31454000  0.29 0.1119032772
H  H355  1  0.43123000  0.18761000  0.24563000  0.29 0.1455741769
H  H356  1  0.43635000  0.22800000  0.28451000  0.29 0.1119032772
H  H357  1  0.44584000  0.14597000  0.28340000  0.29 0.07069996
H  H358  1  0.19436000  0.11643000  0.23607000  0.29 0.0813918176
H  H359  1  0.24285000  0.06870000  0.26141000  0.29 0.1009073911
H  H360  1  0.18421000  0.11507000  0.28041000  0.29 0.118308447
H  H361  1  0.44528000  0.78829000  0.52030000  0.29 0.07069996
H  H362  1  0.50086000  0.72554000  0.37172000  0.29 0.0813918176
H  H363  1  0.56856000  0.70824000  0.39609000  0.29 0.0813918176
H  H364  1  0.54100000  0.85865000  0.40345000  0.29 0.1009073911
H  H365  1  0.58120000  0.71854000  0.41264000  0.29 0.0813918176
H  H366  1  0.52104000  0.74771000  0.38600000  0.29 0.0485290551
H  H367  1  0.51360000  0.83816000  0.37674000  0.29 0.0609685069
H  H368  1  0.56810000  0.79850000  0.34026000  0.29 0.1009073911
H  H369  1  0.78854000  0.88830000  0.36246000  0.29 0.0897173687
H  H370  1  0.76052000  0.89861000  0.42928000  0.29 0.1009073911
H  H371  1  0.73270000  0.82217000  0.43765000  0.29 0.0813918176
H  H372  1  0.74277000  0.89991000  0.32862000  0.29 0.1119032772
H  H373  1  0.55781000  0.74519000  0.32100000  0.29 0.07069996
H  H374  1  0.67401000  0.90424000  0.47671000  0.29 0.1119032772
H  H375  1  0.64672000  0.94402000  0.44025000  0.29 0.07069996
H  H376  1  0.69635000  0.85458000  0.41486000  0.29 0.0897173687
H  H377  1  0.71971000  0.92719000  0.39567000  0.29 0.0813918176
H  H378  1  0.61320000  0.95975000  0.42220000  0.29 0.07069996
H  H379  1  0.59028000  0.93777000  0.38063000  0.29 0.0897173687
H  H380  1  0.41421000  0.81589000  0.49765000  0.29 0.07069996
H  H381  1  0.64644000  0.67413000  0.22978000  0.29 0.1119032772
H  H382  1  0.71012000  0.71083000  0.25017000  0.29 0.1119032772
H  H383  1  0.65919000  0.66207000  0.27344000  0.29 0.118308447
H  H384  1  0.85514000  0.91283000  0.27729000  0.29 0.0897173687
H  H385  1  0.82673000  0.94309000  0.31592000  0.29 0.1009073911
H  H386  1  0.85983000  0.86746000  0.31454000  0.29 0.1119032772
H  H387  1  0.56877000  0.81239000  0.24563000  0.29 0.1455741769
H  H388  1  0.56365000  0.77200000  0.28451000  0.29 0.1119032772
H  H389  1  0.55416000  0.85403000  0.28340000  0.29 0.07069996
H  H390  1  0.80564000  0.88357000  0.23607000  0.29 0.0813918176
H  H391  1  0.75715000  0.93130000  0.26141000  0.29 0.1009073911
H  H392  1  0.81579000  0.88493000  0.28041000  0.29 0.118308447
H  H393  1  0.22008000  0.52834000  0.54371000  0.42 0.07069996
H  H394  1  0.77992000  0.47166000  0.54371000  0.42 0.07069996
H  H395  1  0.97166000  0.72008000  0.04371000  0.42 0.07069996
H  H396  1  0.02834000  0.27992000  0.04371000  0.42 0.07069996
H  H397  1  0.27992000  0.02834000  0.95629000  0.42 0.07069996
H  H398  1  0.72008000  0.97166000  0.95629000  0.42 0.07069996
H  H399  1  0.52834000  0.22008000  0.45629000  0.42 0.07069996
H  H400  1  0.47166000  0.77992000  0.45629000  0.42 0.07069996
C  C1  1  0.18570000  0.23550000  0.93300000  1.0 0.5810186288
C  C2  1  0.01360000  0.85260000  0.88676000  1.0 0.6333281047
C  C3  1  0.05780000  0.79170000  0.87831000  1.0 -0.0370491321
C  C4  1  0.38070000  0.55440000  0.65709000  1.0 0.5858014024
C  C5  1  0.34880000  0.55670000  0.69447000  1.0 -0.067425579
C  C6  1  0.19570000  0.30330000  0.91372000  1.0 -0.0195933134
C  C7  1  0.20680000  0.42820000  0.87646000  1.0 0.0609685069
C  C8  1  0.12430000  0.79960000  0.86439000  1.0 -0.1763944595
C  C9  1  0.16380000  0.74260000  0.85515000  1.0 -0.2222283826
C  C10  1  0.20470000  0.36310000  0.93350000  1.0 -0.1091060943
C  C11  1  0.21050000  0.42620000  0.91531000  1.0 -0.1556214743
C  C12  1  0.28430000  0.55890000  0.76445000  1.0 0.041306759
C  C13  1  0.25630000  0.59400000  0.73373000  1.0 -0.1909016921
C  C14  1  0.37830000  0.52210000  0.72402000  1.0 -0.1327596055
C  C15  1  0.19220000  0.30440000  0.87522000  1.0 -0.1004117352
C  C16  1  0.28650000  0.59140000  0.69933000  1.0 -0.1992706752
C  C17  1  0.34590000  0.52370000  0.75885000  1.0 -0.1992706752
C  C18  1  0.13860000  0.67610000  0.86066000  1.0 0.0813918176
C  C19  1  0.03260000  0.72490000  0.88450000  1.0 -0.0827513024
C  C20  1  0.19750000  0.36740000  0.85659000  1.0 -0.1672876754
C  C21  1  0.24820000  0.55930000  0.80060000  1.0 0.07069996
C  C22  1  0.17820000  0.55340000  0.86870000  1.0 -0.2222283826
C  C23  1  0.21240000  0.61620000  0.81410000  1.0 -0.23029204
C  C24  1  0.07330000  0.66780000  0.87550000  1.0 -0.137415676
C  C25  1  0.24710000  0.49800000  0.82224000  1.0 -0.2368764371
C  C26  1  0.21070000  0.49420000  0.85527000  1.0 0.0813918176
C  C27  1  0.17830000  0.61500000  0.84790000  1.0 0.0897173687
C  C28  1  0.81430000  0.76450000  0.93300000  1.0 0.5810186288
C  C29  1  0.98640000  0.14740000  0.88676000  1.0 0.6333281047
C  C30  1  0.94220000  0.20830000  0.87831000  1.0 -0.0370491321
C  C31  1  0.61930000  0.44560000  0.65709000  1.0 0.5858014024
C  C32  1  0.65120000  0.44330000  0.69447000  1.0 -0.067425579
C  C33  1  0.80430000  0.69670000  0.91372000  1.0 -0.0195933134
C  C34  1  0.79320000  0.57180000  0.87646000  1.0 0.0609685069
C  C35  1  0.87570000  0.20040000  0.86439000  1.0 -0.1763944595
C  C36  1  0.83620000  0.25740000  0.85515000  1.0 -0.2222283826
C  C37  1  0.79530000  0.63690000  0.93350000  1.0 -0.1091060943
C  C38  1  0.78950000  0.57380000  0.91531000  1.0 -0.1556214743
C  C39  1  0.71570000  0.44110000  0.76445000  1.0 0.041306759
C  C40  1  0.74370000  0.40600000  0.73373000  1.0 -0.1909016921
C  C41  1  0.62170000  0.47790000  0.72402000  1.0 -0.1327596055
C  C42  1  0.80780000  0.69560000  0.87522000  1.0 -0.1004117352
C  C43  1  0.71350000  0.40860000  0.69933000  1.0 -0.1992706752
C  C44  1  0.65410000  0.47630000  0.75885000  1.0 -0.1992706752
C  C45  1  0.86140000  0.32390000  0.86066000  1.0 0.0813918176
C  C46  1  0.96740000  0.27510000  0.88450000  1.0 -0.0827513024
C  C47  1  0.80250000  0.63260000  0.85659000  1.0 -0.1672876754
C  C48  1  0.75180000  0.44070000  0.80060000  1.0 0.07069996
C  C49  1  0.82180000  0.44660000  0.86870000  1.0 -0.2222283826
C  C50  1  0.78760000  0.38380000  0.81410000  1.0 -0.23029204
C  C51  1  0.92670000  0.33220000  0.87550000  1.0 -0.137415676
C  C52  1  0.75290000  0.50200000  0.82224000  1.0 -0.2368764371
C  C53  1  0.78930000  0.50580000  0.85527000  1.0 0.0813918176
C  C54  1  0.82170000  0.38500000  0.84790000  1.0 0.0897173687
C  C55  1  0.26450000  0.68570000  0.43300000  1.0 0.5810186288
C  C56  1  0.64740000  0.51360000  0.38676000  1.0 0.6333281047
C  C57  1  0.70830000  0.55780000  0.37831000  1.0 -0.0370491321
C  C58  1  0.94560000  0.88070000  0.15709000  1.0 0.5858014024
C  C59  1  0.94330000  0.84880000  0.19447000  1.0 -0.067425579
C  C60  1  0.19670000  0.69570000  0.41372000  1.0 -0.0195933134
C  C61  1  0.07180000  0.70680000  0.37646000  1.0 0.0609685069
C  C62  1  0.70040000  0.62430000  0.36439000  1.0 -0.1763944595
C  C63  1  0.75740000  0.66380000  0.35515000  1.0 -0.2222283826
C  C64  1  0.13690000  0.70470000  0.43350000  1.0 -0.1091060943
C  C65  1  0.07380000  0.71050000  0.41531000  1.0 -0.1556214743
C  C66  1  0.94110000  0.78430000  0.26445000  1.0 0.041306759
C  C67  1  0.90600000  0.75630000  0.23373000  1.0 -0.1909016921
C  C68  1  0.97790000  0.87830000  0.22402000  1.0 -0.1327596055
C  C69  1  0.19560000  0.69220000  0.37522000  1.0 -0.1004117352
C  C70  1  0.90860000  0.78650000  0.19933000  1.0 -0.1909016921
C  C71  1  0.97630000  0.84590000  0.25885000  1.0 -0.1992706752
C  C72  1  0.82390000  0.63860000  0.36066000  1.0 0.0813918176
C  C73  1  0.77510000  0.53260000  0.38450000  1.0 -0.0827513024
C  C74  1  0.13260000  0.69750000  0.35659000  1.0 -0.1672876754
C  C75  1  0.94070000  0.74820000  0.30060000  1.0 0.07069996
C  C76  1  0.94660000  0.67820000  0.36870000  1.0 -0.2222283826
C  C77  1  0.88380000  0.71240000  0.31410000  1.0 -0.2222283826
C  C78  1  0.83220000  0.57330000  0.37550000  1.0 -0.137415676
C  C79  1  0.00200000  0.74710000  0.32224000  1.0 -0.2368764371
C  C80  1  0.00580000  0.71070000  0.35527000  1.0 0.0813918176
C  C81  1  0.88500000  0.67830000  0.34790000  1.0 0.0897173687
C  C82  1  0.73550000  0.31430000  0.43300000  1.0 0.5810186288
C  C83  1  0.35260000  0.48640000  0.38676000  1.0 0.6333281047
C  C84  1  0.29170000  0.44220000  0.37831000  1.0 -0.0370491321
C  C85  1  0.05440000  0.11930000  0.15709000  1.0 0.5858014024
C  C86  1  0.05670000  0.15120000  0.19447000  1.0 -0.067425579
C  C87  1  0.80330000  0.30430000  0.41372000  1.0 -0.0195933134
C  C88  1  0.92820000  0.29320000  0.37646000  1.0 0.0609685069
C  C89  1  0.29960000  0.37570000  0.36439000  1.0 -0.1763944595
C  C90  1  0.24260000  0.33620000  0.35515000  1.0 -0.2222283826
C  C91  1  0.86310000  0.29530000  0.43350000  1.0 -0.1091060943
C  C92  1  0.92620000  0.28950000  0.41531000  1.0 -0.1556214743
C  C93  1  0.05890000  0.21570000  0.26445000  1.0 0.041306759
C  C94  1  0.09400000  0.24370000  0.23373000  1.0 -0.1909016921
C  C95  1  0.02210000  0.12170000  0.22402000  1.0 -0.1327596055
C  C96  1  0.80440000  0.30780000  0.37522000  1.0 -0.1004117352
C  C97  1  0.09140000  0.21350000  0.19933000  1.0 -0.1992706752
C  C98  1  0.02370000  0.15410000  0.25885000  1.0 -0.1992706752
C  C99  1  0.17610000  0.36140000  0.36066000  1.0 0.0813918176
C  C100  1  0.22490000  0.46740000  0.38450000  1.0 -0.0827513024
C  C101  1  0.86740000  0.30250000  0.35659000  1.0 -0.1672876754
C  C102  1  0.05930000  0.25180000  0.30060000  1.0 0.07069996
C  C103  1  0.05340000  0.32180000  0.36870000  1.0 -0.2222283826
C  C104  1  0.11620000  0.28760000  0.31410000  1.0 -0.2222283826
C  C105  1  0.16780000  0.42670000  0.37550000  1.0 -0.137415676
C  C106  1  0.99800000  0.25290000  0.32224000  1.0 -0.2368764371
C  C107  1  0.99420000  0.28930000  0.35527000  1.0 0.0813918176
C  C108  1  0.11500000  0.32170000  0.34790000  1.0 0.0897173687
C  C109  1  0.31430000  0.73550000  0.56700000  1.0 0.5810186288
C  C110  1  0.48640000  0.35260000  0.61324000  1.0 0.6333281047
C  C111  1  0.44220000  0.29170000  0.62169000  1.0 -0.0370491321
C  C112  1  0.11930000  0.05440000  0.84291000  1.0 0.5858014024
C  C113  1  0.15120000  0.05670000  0.80553000  1.0 -0.067425579
C  C114  1  0.30430000  0.80330000  0.58628000  1.0 -0.0195933134
C  C115  1  0.29320000  0.92820000  0.62354000  1.0 0.0609685069
C  C116  1  0.37570000  0.29960000  0.63561000  1.0 -0.1763944595
C  C117  1  0.33620000  0.24260000  0.64485000  1.0 -0.2222283826
C  C118  1  0.29530000  0.86310000  0.56650000  1.0 -0.1091060943
C  C119  1  0.28950000  0.92620000  0.58469000  1.0 -0.1556214743
C  C120  1  0.21570000  0.05890000  0.73555000  1.0 0.041306759
C  C121  1  0.24370000  0.09400000  0.76627000  1.0 -0.1909016921
C  C122  1  0.12170000  0.02210000  0.77598000  1.0 -0.1327596055
C  C123  1  0.30780000  0.80440000  0.62478000  1.0 -0.1004117352
C  C124  1  0.21350000  0.09140000  0.80067000  1.0 -0.1992706752
C  C125  1  0.15410000  0.02370000  0.74115000  1.0 -0.1992706752
C  C126  1  0.36140000  0.17610000  0.63934000  1.0 0.0813918176
C  C127  1  0.46740000  0.22490000  0.61550000  1.0 -0.0827513024
C  C128  1  0.30250000  0.86740000  0.64341000  1.0 -0.1672876754
C  C129  1  0.25180000  0.05930000  0.69940000  1.0 0.07069996
C  C130  1  0.32180000  0.05340000  0.63130000  1.0 -0.2222283826
C  C131  1  0.28760000  0.11620000  0.68590000  1.0 -0.2222283826
C  C132  1  0.42670000  0.16780000  0.62450000  1.0 -0.1327596055
C  C133  1  0.25290000  0.99800000  0.67776000  1.0 -0.2368764371
C  C134  1  0.28930000  0.99420000  0.64473000  1.0 0.0813918176
C  C135  1  0.32170000  0.11500000  0.65210000  1.0 0.0897173687
C  C136  1  0.68570000  0.26450000  0.56700000  1.0 0.5810186288
C  C137  1  0.51360000  0.64740000  0.61324000  1.0 0.6333281047
C  C138  1  0.55780000  0.70830000  0.62169000  1.0 -0.0370491321
C  C139  1  0.88070000  0.94560000  0.84291000  1.0 0.5858014024
C  C140  1  0.84880000  0.94330000  0.80553000  1.0 -0.067425579
C  C141  1  0.69570000  0.19670000  0.58628000  1.0 -0.0195933134
C  C142  1  0.70680000  0.07180000  0.62354000  1.0 0.0609685069
C  C143  1  0.62430000  0.70040000  0.63561000  1.0 -0.1763944595
C  C144  1  0.66380000  0.75740000  0.64485000  1.0 -0.2222283826
C  C145  1  0.70470000  0.13690000  0.56650000  1.0 -0.1091060943
C  C146  1  0.71050000  0.07380000  0.58469000  1.0 -0.1556214743
C  C147  1  0.78430000  0.94110000  0.73555000  1.0 0.041306759
C  C148  1  0.75630000  0.90600000  0.76627000  1.0 -0.1909016921
C  C149  1  0.87830000  0.97790000  0.77598000  1.0 -0.1327596055
C  C150  1  0.69220000  0.19560000  0.62478000  1.0 -0.1004117352
C  C151  1  0.78650000  0.90860000  0.80067000  1.0 -0.1909016921
C  C152  1  0.84590000  0.97630000  0.74115000  1.0 -0.1992706752
C  C153  1  0.63860000  0.82390000  0.63934000  1.0 0.0813918176
C  C154  1  0.53260000  0.77510000  0.61550000  1.0 -0.0827513024
C  C155  1  0.69750000  0.13260000  0.64341000  1.0 -0.1672876754
C  C156  1  0.74820000  0.94070000  0.69940000  1.0 0.07069996
C  C157  1  0.67820000  0.94660000  0.63130000  1.0 -0.2222283826
C  C158  1  0.71240000  0.88380000  0.68590000  1.0 -0.2222283826
C  C159  1  0.57330000  0.83220000  0.62450000  1.0 -0.1327596055
C  C160  1  0.74710000  0.00200000  0.67776000  1.0 -0.2368764371
C  C161  1  0.71070000  0.00580000  0.64473000  1.0 0.0813918176
C  C162  1  0.67830000  0.88500000  0.65210000  1.0 0.0897173687
C  C163  1  0.23550000  0.18570000  0.06700000  1.0 0.5810186288
C  C164  1  0.85260000  0.01360000  0.11324000  1.0 0.6333281047
C  C165  1  0.79170000  0.05780000  0.12169000  1.0 -0.0370491321
C  C166  1  0.55440000  0.38070000  0.34291000  1.0 0.5858014024
C  C167  1  0.55670000  0.34880000  0.30553000  1.0 -0.067425579
C  C168  1  0.30330000  0.19570000  0.08628000  1.0 -0.0195933134
C  C169  1  0.42820000  0.20680000  0.12354000  1.0 0.0609685069
C  C170  1  0.79960000  0.12430000  0.13561000  1.0 -0.1763944595
C  C171  1  0.74260000  0.16380000  0.14485000  1.0 -0.2222283826
C  C172  1  0.36310000  0.20470000  0.06650000  1.0 -0.1091060943
C  C173  1  0.42620000  0.21050000  0.08469000  1.0 -0.1556214743
C  C174  1  0.55890000  0.28430000  0.23555000  1.0 0.041306759
C  C175  1  0.59400000  0.25630000  0.26627000  1.0 -0.1909016921
C  C176  1  0.52210000  0.37830000  0.27598000  1.0 -0.1327596055
C  C177  1  0.30440000  0.19220000  0.12478000  1.0 -0.1004117352
C  C178  1  0.59140000  0.28650000  0.30067000  1.0 -0.1909016921
C  C179  1  0.52370000  0.34590000  0.24115000  1.0 -0.1992706752
C  C180  1  0.67610000  0.13860000  0.13934000  1.0 0.0813918176
C  C181  1  0.72490000  0.03260000  0.11550000  1.0 -0.0827513024
C  C182  1  0.36740000  0.19750000  0.14341000  1.0 -0.1672876754
C  C183  1  0.55930000  0.24820000  0.19940000  1.0 0.07069996
C  C184  1  0.55340000  0.17820000  0.13130000  1.0 -0.2222283826
C  C185  1  0.61620000  0.21240000  0.18590000  1.0 -0.23029204
C  C186  1  0.66780000  0.07330000  0.12450000  1.0 -0.1327596055
C  C187  1  0.49800000  0.24710000  0.17776000  1.0 -0.2368764371
C  C188  1  0.49420000  0.21070000  0.14473000  1.0 0.0813918176
C  C189  1  0.61500000  0.17830000  0.15210000  1.0 0.0897173687
C  C190  1  0.76450000  0.81430000  0.06700000  1.0 0.5810186288
C  C191  1  0.14740000  0.98640000  0.11324000  1.0 0.6333281047
C  C192  1  0.20830000  0.94220000  0.12169000  1.0 -0.0370491321
C  C193  1  0.44560000  0.61930000  0.34291000  1.0 0.5858014024
C  C194  1  0.44330000  0.65120000  0.30553000  1.0 -0.067425579
C  C195  1  0.69670000  0.80430000  0.08628000  1.0 -0.0195933134
C  C196  1  0.57180000  0.79320000  0.12354000  1.0 0.0609685069
C  C197  1  0.20040000  0.87570000  0.13561000  1.0 -0.1763944595
C  C198  1  0.25740000  0.83620000  0.14485000  1.0 -0.2222283826
C  C199  1  0.63690000  0.79530000  0.06650000  1.0 -0.1091060943
C  C200  1  0.57380000  0.78950000  0.08469000  1.0 -0.1556214743
C  C201  1  0.44110000  0.71570000  0.23555000  1.0 0.041306759
C  C202  1  0.40600000  0.74370000  0.26627000  1.0 -0.1909016921
C  C203  1  0.47790000  0.62170000  0.27598000  1.0 -0.1327596055
C  C204  1  0.69560000  0.80780000  0.12478000  1.0 -0.1004117352
C  C205  1  0.40860000  0.71350000  0.30067000  1.0 -0.1909016921
C  C206  1  0.47630000  0.65410000  0.24115000  1.0 -0.1992706752
C  C207  1  0.32390000  0.86140000  0.13934000  1.0 0.0813918176
C  C208  1  0.27510000  0.96740000  0.11550000  1.0 -0.0827513024
C  C209  1  0.63260000  0.80250000  0.14341000  1.0 -0.1672876754
C  C210  1  0.44070000  0.75180000  0.19940000  1.0 0.07069996
C  C211  1  0.44660000  0.82180000  0.13130000  1.0 -0.2222283826
C  C212  1  0.38380000  0.78760000  0.18590000  1.0 -0.23029204
C  C213  1  0.33220000  0.92670000  0.12450000  1.0 -0.1327596055
C  C214  1  0.50200000  0.75290000  0.17776000  1.0 -0.2368764371
C  C215  1  0.50580000  0.78930000  0.14473000  1.0 0.0813918176
C  C216  1  0.38500000  0.82170000  0.15210000  1.0 0.0897173687
C  C217  1  0.24730000  0.50550000  0.55700000  0.29 0.0311748927
C  C218  1  0.20170000  0.51800000  0.54450000  0.29 -0.0484775478
C  C219  1  0.22770000  0.54740000  0.50450000  0.29 0.0485290551
C  C220  1  0.25940000  0.47060000  0.60680000  0.29 -0.1327596055
C  C221  1  0.17370000  0.42120000  0.58910000  0.29 0.0609685069
C  C222  1  0.16340000  0.43530000  0.51970000  0.29 0.2021624746
C  C223  1  0.20740000  0.49480000  0.52820000  0.29 -0.0484775478
C  C224  1  0.24510000  0.45430000  0.59010000  0.29 -0.137415676
C  C225  1  0.18450000  0.44450000  0.61250000  0.29 -0.0370491321
C  C226  1  0.25640000  0.51410000  0.57090000  0.29 0.0609685069
C  C227  1  0.13920000  0.30190000  0.61250000  0.29 -0.067425579
C  C228  1  0.16590000  0.36740000  0.61910000  0.29 0.0311748927
C  C229  1  0.18330000  0.38720000  0.65520000  0.29 -0.1004117352
C  C230  1  0.17400000  0.34150000  0.68470000  0.29 0.0311748927
C  C231  1  0.14730000  0.27600000  0.67810000  0.29 -0.0303098168
C  C232  1  0.12990000  0.25620000  0.64200000  0.29 -0.137415676
C  C233  1  0.15000000  0.46800000  0.54830000  0.29 0.0485290551
C  C234  1  0.13200000  0.28000000  0.57250000  0.29 -0.1992706752
C  C235  1  0.13150000  0.29480000  0.67290000  0.29 -0.0827513024
C  C236  1  0.13730000  0.34090000  0.64340000  0.29 -0.0009901646
C  C237  1  0.18320000  0.39590000  0.64560000  0.29 -0.0601913773
C  C238  1  0.22340000  0.40460000  0.67750000  0.29 -0.1763944595
C  C239  1  0.21760000  0.35850000  0.70700000  0.29 0.0897173687
C  C240  1  0.17170000  0.30360000  0.70470000  0.29 0.1009073911
C  C241  1  0.10200000  0.34010000  0.54970000  0.29 -0.1992706752
C  C242  1  0.10800000  0.31700000  0.60290000  0.29 -0.0370491321
C  C243  1  0.07900000  0.38900000  0.59580000  0.29 -0.23029204
C  C244  1  0.21570000  0.56820000  0.52030000  0.29 -0.0088282043
C  C245  1  0.30440000  0.33800000  0.74700000  0.29 -0.3915749059
C  C246  1  0.09900000  0.16800000  0.69920000  0.29 -0.2753193096
C  C247  1  0.18500000  0.42100000  0.72760000  0.29 -0.0827513024
C  C248  1  0.11280000  0.21810000  0.73990000  0.29 0.041306759
C  C249  1  0.75270000  0.49450000  0.55700000  0.29 0.0311748927
C  C250  1  0.79830000  0.48200000  0.54450000  0.29 -0.0484775478
C  C251  1  0.77230000  0.45260000  0.50450000  0.29 0.0485290551
C  C252  1  0.74060000  0.52940000  0.60680000  0.29 -0.1327596055
C  C253  1  0.82630000  0.57880000  0.58910000  0.29 0.0609685069
C  C254  1  0.83660000  0.56470000  0.51970000  0.29 0.2021624746
C  C255  1  0.79260000  0.50520000  0.52820000  0.29 -0.0370491321
C  C256  1  0.75490000  0.54570000  0.59010000  0.29 -0.137415676
C  C257  1  0.81550000  0.55550000  0.61250000  0.29 -0.0370491321
C  C258  1  0.74360000  0.48590000  0.57090000  0.29 0.0609685069
C  C259  1  0.86080000  0.69810000  0.61250000  0.29 -0.067425579
C  C260  1  0.83410000  0.63260000  0.61910000  0.29 0.0311748927
C  C261  1  0.81670000  0.61280000  0.65520000  0.29 -0.1004117352
C  C262  1  0.82600000  0.65850000  0.68470000  0.29 0.0311748927
C  C263  1  0.85270000  0.72400000  0.67810000  0.29 -0.0303098168
C  C264  1  0.87010000  0.74380000  0.64200000  0.29 -0.137415676
C  C265  1  0.85000000  0.53200000  0.54830000  0.29 0.0485290551
C  C266  1  0.86800000  0.72000000  0.57250000  0.29 -0.1992706752
C  C267  1  0.86850000  0.70520000  0.67290000  0.29 -0.0827513024
C  C268  1  0.86270000  0.65910000  0.64340000  0.29 -0.0009901646
C  C269  1  0.81680000  0.60410000  0.64560000  0.29 -0.0601913773
C  C270  1  0.77660000  0.59540000  0.67750000  0.29 -0.1763944595
C  C271  1  0.78240000  0.64150000  0.70700000  0.29 0.0897173687
C  C272  1  0.82830000  0.69640000  0.70470000  0.29 0.1009073911
C  C273  1  0.89800000  0.65990000  0.54970000  0.29 -0.1992706752
C  C274  1  0.89200000  0.68300000  0.60290000  0.29 -0.0370491321
C  C275  1  0.92100000  0.61100000  0.59580000  0.29 -0.23029204
C  C276  1  0.78430000  0.43180000  0.52030000  0.29 -0.0088282043
C  C277  1  0.69560000  0.66200000  0.74700000  0.29 -0.3915749059
C  C278  1  0.90100000  0.83200000  0.69920000  0.29 -0.2753193096
C  C279  1  0.81500000  0.57900000  0.72760000  0.29 -0.0827513024
C  C280  1  0.88720000  0.78190000  0.73990000  0.29 0.041306759
C  C281  1  0.99450000  0.74730000  0.05700000  0.29 0.0311748927
C  C282  1  0.98200000  0.70170000  0.04450000  0.29 -0.0484775478
C  C283  1  0.95260000  0.72770000  0.00450000  0.29 0.0485290551
C  C284  1  0.02940000  0.75940000  0.10680000  0.29 -0.1327596055
C  C285  1  0.07880000  0.67370000  0.08910000  0.29 0.0609685069
C  C286  1  0.06470000  0.66340000  0.01970000  0.29 0.2021624746
C  C287  1  0.00520000  0.70740000  0.02820000  0.29 -0.0484775478
C  C288  1  0.04570000  0.74510000  0.09010000  0.29 -0.137415676
C  C289  1  0.05550000  0.68450000  0.11250000  0.29 -0.0370491321
C  C290  1  0.98590000  0.75640000  0.07090000  0.29 0.0609685069
C  C291  1  0.19810000  0.63920000  0.11250000  0.29 -0.067425579
C  C292  1  0.13260000  0.66590000  0.11910000  0.29 0.0311748927
C  C293  1  0.11280000  0.68330000  0.15520000  0.29 -0.1004117352
C  C294  1  0.15850000  0.67400000  0.18470000  0.29 0.0311748927
C  C295  1  0.22400000  0.64730000  0.17810000  0.29 -0.0303098168
C  C296  1  0.24380000  0.62990000  0.14200000  0.29 -0.1327596055
C  C297  1  0.03200000  0.65000000  0.04830000  0.29 0.0485290551
C  C298  1  0.22000000  0.63200000  0.07250000  0.29 -0.1992706752
C  C299  1  0.20520000  0.63150000  0.17290000  0.29 -0.0827513024
C  C300  1  0.15910000  0.63730000  0.14340000  0.29 -0.0009901646
C  C301  1  0.10410000  0.68320000  0.14560000  0.29 -0.0601913773
C  C302  1  0.09540000  0.72340000  0.17750000  0.29 -0.1763944595
C  C303  1  0.14150000  0.71760000  0.20700000  0.29 0.0897173687
C  C304  1  0.19640000  0.67170000  0.20470000  0.29 0.1009073911
C  C305  1  0.15990000  0.60200000  0.04970000  0.29 -0.1992706752
C  C306  1  0.18300000  0.60800000  0.10290000  0.29 -0.0370491321
C  C307  1  0.11100000  0.57900000  0.09580000  0.29 -0.23029204
C  C308  1  0.93180000  0.71570000  0.02030000  0.29 -0.0088282043
C  C309  1  0.16200000  0.80440000  0.24700000  0.29 -0.3915749059
C  C310  1  0.33200000  0.59900000  0.19920000  0.29 -0.2753193096
C  C311  1  0.07900000  0.68500000  0.22760000  0.29 -0.0827513024
C  C312  1  0.28190000  0.61280000  0.23990000  0.29 0.041306759
C  C313  1  0.00550000  0.25270000  0.05700000  0.29 0.0311748927
C  C314  1  0.01800000  0.29830000  0.04450000  0.29 -0.0484775478
C  C315  1  0.04740000  0.27230000  0.00450000  0.29 0.0485290551
C  C316  1  0.97060000  0.24060000  0.10680000  0.29 -0.1327596055
C  C317  1  0.92120000  0.32630000  0.08910000  0.29 0.0609685069
C  C318  1  0.93530000  0.33660000  0.01970000  0.29 0.2021624746
C  C319  1  0.99480000  0.29260000  0.02820000  0.29 -0.0484775478
C  C320  1  0.95430000  0.25490000  0.09010000  0.29 -0.137415676
C  C321  1  0.94450000  0.31550000  0.11250000  0.29 -0.0303098168
C  C322  1  0.01410000  0.24360000  0.07090000  0.29 0.0609685069
C  C323  1  0.80190000  0.36080000  0.11250000  0.29 -0.067425579
C  C324  1  0.86740000  0.33410000  0.11910000  0.29 0.0311748927
C  C325  1  0.88720000  0.31670000  0.15520000  0.29 -0.1004117352
C  C326  1  0.84150000  0.32600000  0.18470000  0.29 0.0311748927
C  C327  1  0.77600000  0.35270000  0.17810000  0.29 -0.0303098168
C  C328  1  0.75620000  0.37010000  0.14200000  0.29 -0.1327596055
C  C329  1  0.96800000  0.35000000  0.04830000  0.29 0.0485290551
C  C330  1  0.78000000  0.36800000  0.07250000  0.29 -0.1992706752
C  C331  1  0.79480000  0.36850000  0.17290000  0.29 -0.0827513024
C  C332  1  0.84090000  0.36270000  0.14340000  0.29 -0.0009901646
C  C333  1  0.89590000  0.31680000  0.14560000  0.29 -0.0601913773
C  C334  1  0.90460000  0.27660000  0.17750000  0.29 -0.1763944595
C  C335  1  0.85850000  0.28240000  0.20700000  0.29 0.0897173687
C  C336  1  0.80360000  0.32830000  0.20470000  0.29 0.1009073911
C  C337  1  0.84010000  0.39800000  0.04970000  0.29 -0.1992706752
C  C338  1  0.81700000  0.39200000  0.10290000  0.29 -0.0370491321
C  C339  1  0.88900000  0.42100000  0.09580000  0.29 -0.23029204
C  C340  1  0.06820000  0.28430000  0.02030000  0.29 -0.0088282043
C  C341  1  0.83800000  0.19560000  0.24700000  0.29 -0.3915749059
C  C342  1  0.66800000  0.40100000  0.19920000  0.29 -0.2753193096
C  C343  1  0.92100000  0.31500000  0.22760000  0.29 -0.0827513024
C  C344  1  0.71810000  0.38720000  0.23990000  0.29 0.041306759
C  C345  1  0.25270000  0.00550000  0.94300000  0.29 0.0311748927
C  C346  1  0.29830000  0.01800000  0.95550000  0.29 -0.0484775478
C  C347  1  0.27230000  0.04740000  0.99550000  0.29 0.0485290551
C  C348  1  0.24060000  0.97060000  0.89320000  0.29 -0.1327596055
C  C349  1  0.32630000  0.92120000  0.91090000  0.29 0.0609685069
C  C350  1  0.33660000  0.93530000  0.98030000  0.29 0.2021624746
C  C351  1  0.29260000  0.99480000  0.97180000  0.29 -0.0484775478
C  C352  1  0.25490000  0.95430000  0.90990000  0.29 -0.137415676
C  C353  1  0.31550000  0.94450000  0.88750000  0.29 -0.0303098168
C  C354  1  0.24360000  0.01410000  0.92910000  0.29 0.0609685069
C  C355  1  0.36080000  0.80190000  0.88750000  0.29 -0.067425579
C  C356  1  0.33410000  0.86740000  0.88090000  0.29 0.0311748927
C  C357  1  0.31670000  0.88720000  0.84480000  0.29 -0.1004117352
C  C358  1  0.32600000  0.84150000  0.81530000  0.29 0.0311748927
C  C359  1  0.35270000  0.77600000  0.82190000  0.29 -0.0303098168
C  C360  1  0.37010000  0.75620000  0.85800000  0.29 -0.137415676
C  C361  1  0.35000000  0.96800000  0.95170000  0.29 0.0485290551
C  C362  1  0.36800000  0.78000000  0.92750000  0.29 -0.1992706752
C  C363  1  0.36850000  0.79480000  0.82710000  0.29 -0.0827513024
C  C364  1  0.36270000  0.84090000  0.85660000  0.29 -0.0009901646
C  C365  1  0.31680000  0.89590000  0.85440000  0.29 -0.0601913773
C  C366  1  0.27660000  0.90460000  0.82250000  0.29 -0.1763944595
C  C367  1  0.28240000  0.85850000  0.79300000  0.29 0.0897173687
C  C368  1  0.32830000  0.80360000  0.79530000  0.29 0.1009073911
C  C369  1  0.39800000  0.84010000  0.95030000  0.29 -0.1992706752
C  C370  1  0.39200000  0.81700000  0.89710000  0.29 -0.0370491321
C  C371  1  0.42100000  0.88900000  0.90420000  0.29 -0.23029204
C  C372  1  0.28430000  0.06820000  0.97970000  0.29 -0.0088282043
C  C373  1  0.19560000  0.83800000  0.75300000  0.29 -0.3915749059
C  C374  1  0.40100000  0.66800000  0.80080000  0.29 -0.2753193096
C  C375  1  0.31500000  0.92100000  0.77240000  0.29 -0.0827513024
C  C376  1  0.38720000  0.71810000  0.76010000  0.29 0.041306759
C  C377  1  0.74730000  0.99450000  0.94300000  0.29 0.0311748927
C  C378  1  0.70170000  0.98200000  0.95550000  0.29 -0.0484775478
C  C379  1  0.72770000  0.95260000  0.99550000  0.29 0.0485290551
C  C380  1  0.75940000  0.02940000  0.89320000  0.29 -0.1327596055
C  C381  1  0.67370000  0.07880000  0.91090000  0.29 0.0609685069
C  C382  1  0.66340000  0.06470000  0.98030000  0.29 0.2021624746
C  C383  1  0.70740000  0.00520000  0.97180000  0.29 -0.0484775478
C  C384  1  0.74510000  0.04570000  0.90990000  0.29 -0.137415676
C  C385  1  0.68450000  0.05550000  0.88750000  0.29 -0.0370491321
C  C386  1  0.75640000  0.98590000  0.92910000  0.29 0.0609685069
C  C387  1  0.63920000  0.19810000  0.88750000  0.29 -0.067425579
C  C388  1  0.66590000  0.13260000  0.88090000  0.29 0.0311748927
C  C389  1  0.68330000  0.11280000  0.84480000  0.29 -0.1004117352
C  C390  1  0.67400000  0.15850000  0.81530000  0.29 0.0311748927
C  C391  1  0.64730000  0.22400000  0.82190000  0.29 -0.0303098168
C  C392  1  0.62990000  0.24380000  0.85800000  0.29 -0.137415676
C  C393  1  0.65000000  0.03200000  0.95170000  0.29 0.0485290551
C  C394  1  0.63200000  0.22000000  0.92750000  0.29 -0.1992706752
C  C395  1  0.63150000  0.20520000  0.82710000  0.29 -0.0827513024
C  C396  1  0.63730000  0.15910000  0.85660000  0.29 -0.0009901646
C  C397  1  0.68320000  0.10410000  0.85440000  0.29 -0.0601913773
C  C398  1  0.72340000  0.09540000  0.82250000  0.29 -0.1763944595
C  C399  1  0.71760000  0.14150000  0.79300000  0.29 0.0897173687
C  C400  1  0.67170000  0.19640000  0.79530000  0.29 0.1009073911
C  C401  1  0.60200000  0.15990000  0.95030000  0.29 -0.1992706752
C  C402  1  0.60800000  0.18300000  0.89710000  0.29 -0.0370491321
C  C403  1  0.57900000  0.11100000  0.90420000  0.29 -0.23029204
C  C404  1  0.71570000  0.93180000  0.97970000  0.29 -0.0088282043
C  C405  1  0.80440000  0.16200000  0.75300000  0.29 -0.3915749059
C  C406  1  0.59900000  0.33200000  0.80080000  0.29 -0.2753193096
C  C407  1  0.68500000  0.07900000  0.77240000  0.29 -0.0827513024
C  C408  1  0.61280000  0.28190000  0.76010000  0.29 0.041306759
C  C409  1  0.50550000  0.24730000  0.44300000  0.29 0.0311748927
C  C410  1  0.51800000  0.20170000  0.45550000  0.29 -0.0484775478
C  C411  1  0.54740000  0.22770000  0.49550000  0.29 0.0485290551
C  C412  1  0.47060000  0.25940000  0.39320000  0.29 -0.1327596055
C  C413  1  0.42120000  0.17370000  0.41090000  0.29 0.0609685069
C  C414  1  0.43530000  0.16340000  0.48030000  0.29 0.2021624746
C  C415  1  0.49480000  0.20740000  0.47180000  0.29 -0.0484775478
C  C416  1  0.45430000  0.24510000  0.40990000  0.29 -0.137415676
C  C417  1  0.44450000  0.18450000  0.38750000  0.29 -0.0370491321
C  C418  1  0.51410000  0.25640000  0.42910000  0.29 0.0609685069
C  C419  1  0.30190000  0.13920000  0.38750000  0.29 -0.067425579
C  C420  1  0.36740000  0.16590000  0.38090000  0.29 0.0311748927
C  C421  1  0.38720000  0.18330000  0.34480000  0.29 -0.1004117352
C  C422  1  0.34150000  0.17400000  0.31530000  0.29 0.0311748927
C  C423  1  0.27600000  0.14730000  0.32190000  0.29 -0.0303098168
C  C424  1  0.25620000  0.12990000  0.35800000  0.29 -0.137415676
C  C425  1  0.46800000  0.15000000  0.45170000  0.29 0.0485290551
C  C426  1  0.28000000  0.13200000  0.42750000  0.29 -0.1992706752
C  C427  1  0.29480000  0.13150000  0.32710000  0.29 -0.0827513024
C  C428  1  0.34090000  0.13730000  0.35660000  0.29 -0.0009901646
C  C429  1  0.39590000  0.18320000  0.35440000  0.29 -0.0601913773
C  C430  1  0.40460000  0.22340000  0.32250000  0.29 -0.1763944595
C  C431  1  0.35850000  0.21760000  0.29300000  0.29 0.0897173687
C  C432  1  0.30360000  0.17170000  0.29530000  0.29 0.1009073911
C  C433  1  0.34010000  0.10200000  0.45030000  0.29 -0.1992706752
C  C434  1  0.31700000  0.10800000  0.39710000  0.29 -0.0370491321
C  C435  1  0.38900000  0.07900000  0.40420000  0.29 -0.23029204
C  C436  1  0.56820000  0.21570000  0.47970000  0.29 -0.0088282043
C  C437  1  0.33800000  0.30440000  0.25300000  0.29 -0.3915749059
C  C438  1  0.16800000  0.09900000  0.30080000  0.29 -0.2753193096
C  C439  1  0.42100000  0.18500000  0.27240000  0.29 -0.0827513024
C  C440  1  0.21810000  0.11280000  0.26010000  0.29 0.041306759
C  C441  1  0.49450000  0.75270000  0.44300000  0.29 0.0311748927
C  C442  1  0.48200000  0.79830000  0.45550000  0.29 -0.0484775478
C  C443  1  0.45260000  0.77230000  0.49550000  0.29 0.0485290551
C  C444  1  0.52940000  0.74060000  0.39320000  0.29 -0.1327596055
C  C445  1  0.57880000  0.82630000  0.41090000  0.29 0.0609685069
C  C446  1  0.56470000  0.83660000  0.48030000  0.29 0.2021624746
C  C447  1  0.50520000  0.79260000  0.47180000  0.29 -0.0484775478
C  C448  1  0.54570000  0.75490000  0.40990000  0.29 -0.137415676
C  C449  1  0.55550000  0.81550000  0.38750000  0.29 -0.0303098168
C  C450  1  0.48590000  0.74360000  0.42910000  0.29 0.0609685069
C  C451  1  0.69810000  0.86080000  0.38750000  0.29 -0.067425579
C  C452  1  0.63260000  0.83410000  0.38090000  0.29 0.0311748927
C  C453  1  0.61280000  0.81670000  0.34480000  0.29 -0.1004117352
C  C454  1  0.65850000  0.82600000  0.31530000  0.29 0.0311748927
C  C455  1  0.72400000  0.85270000  0.32190000  0.29 -0.0303098168
C  C456  1  0.74380000  0.87010000  0.35800000  0.29 -0.137415676
C  C457  1  0.53200000  0.85000000  0.45170000  0.29 0.0485290551
C  C458  1  0.72000000  0.86800000  0.42750000  0.29 -0.1992706752
C  C459  1  0.70520000  0.86850000  0.32710000  0.29 -0.0827513024
C  C460  1  0.65910000  0.86270000  0.35660000  0.29 -0.0009901646
C  C461  1  0.60410000  0.81680000  0.35440000  0.29 -0.0601913773
C  C462  1  0.59540000  0.77660000  0.32250000  0.29 -0.1763944595
C  C463  1  0.64150000  0.78240000  0.29300000  0.29 0.0897173687
C  C464  1  0.69640000  0.82830000  0.29530000  0.29 0.1009073911
C  C465  1  0.65990000  0.89800000  0.45030000  0.29 -0.1992706752
C  C466  1  0.68300000  0.89200000  0.39710000  0.29 -0.0370491321
C  C467  1  0.61100000  0.92100000  0.40420000  0.29 -0.23029204
C  C468  1  0.43180000  0.78430000  0.47970000  0.29 -0.0088282043
C  C469  1  0.66200000  0.69560000  0.25300000  0.29 -0.3915749059
C  C470  1  0.83200000  0.90100000  0.30080000  0.29 -0.2753193096
C  C471  1  0.57900000  0.81500000  0.27240000  0.29 -0.0827513024
C  C472  1  0.78190000  0.88720000  0.26010000  0.29 0.041306759
C  C473  1  0.25990000  0.55700000  0.54360000  0.42 0.0897173687
C  C474  1  0.74010000  0.44300000  0.54360000  0.42 0.0897173687
C  C475  1  0.94300000  0.75990000  0.04360000  0.42 0.0897173687
C  C476  1  0.05700000  0.24010000  0.04360000  0.42 0.0897173687
C  C477  1  0.24010000  0.05700000  0.95640000  0.42 0.0897173687
C  C478  1  0.75990000  0.94300000  0.95640000  0.42 0.0897173687
C  C479  1  0.55700000  0.25990000  0.45640000  0.42 0.0897173687
C  C480  1  0.44300000  0.74010000  0.45640000  0.42 0.0897173687
N  N1  1  0.15010000  0.39980000  0.55200000  0.29 -0.0303098168
N  N2  1  0.13800000  0.42900000  0.58010000  0.29 -0.0088282043
N  N3  1  0.84990000  0.60020000  0.55200000  0.29 -0.0303098168
N  N4  1  0.86200000  0.57100000  0.58010000  0.29 -0.0088282043
N  N5  1  0.10020000  0.65010000  0.05200000  0.29 -0.0303098168
N  N6  1  0.07100000  0.63800000  0.08010000  0.29 -0.0088282043
N  N7  1  0.89980000  0.34990000  0.05200000  0.29 -0.0303098168
N  N8  1  0.92900000  0.36200000  0.08010000  0.29 -0.0088282043
N  N9  1  0.34990000  0.89980000  0.94800000  0.29 -0.0303098168
N  N10  1  0.36200000  0.92900000  0.91990000  0.29 -0.0088282043
N  N11  1  0.65010000  0.10020000  0.94800000  0.29 -0.0303098168
N  N12  1  0.63800000  0.07100000  0.91990000  0.29 -0.0088282043
N  N13  1  0.39980000  0.15010000  0.44800000  0.29 -0.0303098168
N  N14  1  0.42900000  0.13800000  0.41990000  0.29 -0.0088282043
N  N15  1  0.60020000  0.84990000  0.44800000  0.29 -0.0303098168
N  N16  1  0.57100000  0.86200000  0.41990000  0.29 -0.0088282043
N  N17  1  0.27820000  0.58960000  0.52450000  0.58 -0.1091060943
N  N18  1  0.29500000  0.55980000  0.55740000  0.58 -0.067425579
N  N19  1  0.72180000  0.41040000  0.52450000  0.58 -0.1091060943
N  N20  1  0.70500000  0.44020000  0.55740000  0.58 -0.067425579
N  N21  1  0.91040000  0.77820000  0.02450000  0.58 -0.1091060943
N  N22  1  0.94020000  0.79500000  0.05740000  0.58 -0.067425579
N  N23  1  0.08960000  0.22180000  0.02450000  0.58 -0.1091060943
N  N24  1  0.05980000  0.20500000  0.05740000  0.58 -0.067425579
N  N25  1  0.22180000  0.08960000  0.97550000  0.58 -0.1091060943
N  N26  1  0.20500000  0.05980000  0.94260000  0.58 -0.067425579
N  N27  1  0.77820000  0.91040000  0.97550000  0.58 -0.1091060943
N  N28  1  0.79500000  0.94020000  0.94260000  0.58 -0.067425579
N  N29  1  0.58960000  0.27820000  0.47550000  0.58 -0.1091060943
N  N30  1  0.55980000  0.29500000  0.44260000  0.58 -0.067425579
N  N31  1  0.41040000  0.72180000  0.47550000  0.58 -0.1091060943
N  N32  1  0.44020000  0.70500000  0.44260000  0.58 -0.067425579
O  O1  1  0.04180000  0.91090000  0.88249000  1.0 -0.6277433687
O  O2  1  0.44000000  0.52585000  0.65507000  1.0 -0.5999590361
O  O3  1  0.40315000  0.63211000  0.53466000  1.0 -0.8431354293
O  O4  1  0.43600000  0.52744000  0.58008000  1.0 -0.9324515515
O  O5  1  0.18750000  0.23460000  0.96824000  1.0 -0.5825015471
O  O6  1  0.17470000  0.18416000  0.91231000  1.0 -0.5825015471
O  O7  1  0.95260000  0.84170000  0.89728000  1.0 -0.5999590361
O  O8  1  0.34960000  0.58160000  0.63036000  1.0 -0.5897006148
O  O9  1  0.95820000  0.08910000  0.88249000  1.0 -0.6277433687
O  O10  1  0.56000000  0.47415000  0.65507000  1.0 -0.5999590361
O  O11  1  0.59685000  0.36789000  0.53466000  1.0 -0.8431354293
O  O12  1  0.56400000  0.47256000  0.58008000  1.0 -0.9324515515
O  O13  1  0.81250000  0.76540000  0.96824000  1.0 -0.5825015471
O  O14  1  0.82530000  0.81584000  0.91231000  1.0 -0.5825015471
O  O15  1  0.04740000  0.15830000  0.89728000  1.0 -0.5999590361
O  O16  1  0.65040000  0.41840000  0.63036000  1.0 -0.5897006148
O  O17  1  0.58910000  0.54180000  0.38249000  1.0 -0.6277433687
O  O18  1  0.97415000  0.94000000  0.15507000  1.0 -0.5999590361
O  O19  1  0.86789000  0.90315000  0.03466000  1.0 -0.8431354293
O  O20  1  0.97256000  0.93600000  0.08008000  1.0 -0.9324515515
O  O21  1  0.26540000  0.68750000  0.46824000  1.0 -0.5825015471
O  O22  1  0.31584000  0.67470000  0.41231000  1.0 -0.5825015471
O  O23  1  0.65830000  0.45260000  0.39728000  1.0 -0.5999590361
O  O24  1  0.91840000  0.84960000  0.13036000  1.0 -0.5897006148
O  O25  1  0.41090000  0.45820000  0.38249000  1.0 -0.6277433687
O  O26  1  0.02585000  0.06000000  0.15507000  1.0 -0.5999590361
O  O27  1  0.13211000  0.09685000  0.03466000  1.0 -0.8431354293
O  O28  1  0.02744000  0.06400000  0.08008000  1.0 -0.9324515515
O  O29  1  0.73460000  0.31250000  0.46824000  1.0 -0.5825015471
O  O30  1  0.68416000  0.32530000  0.41231000  1.0 -0.5825015471
O  O31  1  0.34170000  0.54740000  0.39728000  1.0 -0.5999590361
O  O32  1  0.08160000  0.15040000  0.13036000  1.0 -0.5897006148
O  O33  1  0.45820000  0.41090000  0.61751000  1.0 -0.6277433687
O  O34  1  0.06000000  0.02585000  0.84493000  1.0 -0.5999590361
O  O35  1  0.09685000  0.13211000  0.96534000  1.0 -0.8431354293
O  O36  1  0.06400000  0.02744000  0.91992000  1.0 -0.9324515515
O  O37  1  0.31250000  0.73460000  0.53176000  1.0 -0.5825015471
O  O38  1  0.32530000  0.68416000  0.58769000  1.0 -0.5825015471
O  O39  1  0.54740000  0.34170000  0.60272000  1.0 -0.5999590361
O  O40  1  0.15040000  0.08160000  0.86964000  1.0 -0.5897006148
O  O41  1  0.54180000  0.58910000  0.61751000  1.0 -0.6277433687
O  O42  1  0.94000000  0.97415000  0.84493000  1.0 -0.5999590361
O  O43  1  0.90315000  0.86789000  0.96534000  1.0 -0.8431354293
O  O44  1  0.93600000  0.97256000  0.91992000  1.0 -0.9324515515
O  O45  1  0.68750000  0.26540000  0.53176000  1.0 -0.5825015471
O  O46  1  0.67470000  0.31584000  0.58769000  1.0 -0.5825015471
O  O47  1  0.45260000  0.65830000  0.60272000  1.0 -0.5999590361
O  O48  1  0.84960000  0.91840000  0.86964000  1.0 -0.5897006148
O  O49  1  0.91090000  0.04180000  0.11751000  1.0 -0.6277433687
O  O50  1  0.52585000  0.44000000  0.34493000  1.0 -0.5999590361
O  O51  1  0.63211000  0.40315000  0.46534000  1.0 -0.8431354293
O  O52  1  0.52744000  0.43600000  0.41992000  1.0 -0.9324515515
O  O53  1  0.23460000  0.18750000  0.03176000  1.0 -0.5825015471
O  O54  1  0.18416000  0.17470000  0.08769000  1.0 -0.5825015471
O  O55  1  0.84170000  0.95260000  0.10272000  1.0 -0.5999590361
O  O56  1  0.58160000  0.34960000  0.36964000  1.0 -0.5897006148
O  O57  1  0.08910000  0.95820000  0.11751000  1.0 -0.6277433687
O  O58  1  0.47415000  0.56000000  0.34493000  1.0 -0.5999590361
O  O59  1  0.36789000  0.59685000  0.46534000  1.0 -0.8431354293
O  O60  1  0.47256000  0.56400000  0.41992000  1.0 -0.9324515515
O  O61  1  0.76540000  0.81250000  0.03176000  1.0 -0.5825015471
O  O62  1  0.81584000  0.82530000  0.08769000  1.0 -0.5825015471
O  O63  1  0.15830000  0.04740000  0.10272000  1.0 -0.5999590361
O  O64  1  0.41840000  0.65040000  0.36964000  1.0 -0.5897006148
O  O65  1  0.13790000  0.42330000  0.49170000  0.29 -0.2062880767
O  O66  1  0.11400000  0.45100000  0.51710000  0.29 -0.0303098168
O  O67  1  0.24660000  0.38020000  0.73870000  0.29 -0.0484775478
O  O68  1  0.12690000  0.23340000  0.70680000  0.29 0.0199444665
O  O69  1  0.16560000  0.26380000  0.73630000  0.29 -0.1672876754
O  O70  1  0.17700000  0.35100000  0.72230000  0.29 -0.0195933134
O  O71  1  0.86210000  0.57670000  0.49170000  0.29 -0.2062880767
O  O72  1  0.88600000  0.54900000  0.51710000  0.29 -0.0303098168
O  O73  1  0.75340000  0.61980000  0.73870000  0.29 -0.0484775478
O  O74  1  0.87310000  0.76660000  0.70680000  0.29 0.0199444665
O  O75  1  0.83440000  0.73620000  0.73630000  0.29 -0.1672876754
O  O76  1  0.82300000  0.64900000  0.72230000  0.29 -0.0195933134
O  O77  1  0.07670000  0.63790000  0.99170000  0.29 -0.2062880767
O  O78  1  0.04900000  0.61400000  0.01710000  0.29 -0.0195933134
O  O79  1  0.11980000  0.74660000  0.23870000  0.29 -0.0484775478
O  O80  1  0.26660000  0.62690000  0.20680000  0.29 0.0199444665
O  O81  1  0.23620000  0.66560000  0.23630000  0.29 -0.1672876754
O  O82  1  0.14900000  0.67700000  0.22230000  0.29 -0.0195933134
O  O83  1  0.92330000  0.36210000  0.99170000  0.29 -0.2062880767
O  O84  1  0.95100000  0.38600000  0.01710000  0.29 -0.0195933134
O  O85  1  0.88020000  0.25340000  0.23870000  0.29 -0.0484775478
O  O86  1  0.73340000  0.37310000  0.20680000  0.29 0.0199444665
O  O87  1  0.76380000  0.33440000  0.23630000  0.29 -0.1672876754
O  O88  1  0.85100000  0.32300000  0.22230000  0.29 -0.0195933134
O  O89  1  0.36210000  0.92330000  0.00830000  0.29 -0.2062880767
O  O90  1  0.38600000  0.95100000  0.98290000  0.29 -0.0303098168
O  O91  1  0.25340000  0.88020000  0.76130000  0.29 -0.0484775478
O  O92  1  0.37310000  0.73340000  0.79320000  0.29 0.0199444665
O  O93  1  0.33440000  0.76380000  0.76370000  0.29 -0.1672876754
O  O94  1  0.32300000  0.85100000  0.77770000  0.29 -0.0195933134
O  O95  1  0.63790000  0.07670000  0.00830000  0.29 -0.2062880767
O  O96  1  0.61400000  0.04900000  0.98290000  0.29 -0.0303098168
O  O97  1  0.74660000  0.11980000  0.76130000  0.29 -0.0484775478
O  O98  1  0.62690000  0.26660000  0.79320000  0.29 0.0199444665
O  O99  1  0.66560000  0.23620000  0.76370000  0.29 -0.1672876754
O  O100  1  0.67700000  0.14900000  0.77770000  0.29 -0.0195933134
O  O101  1  0.42330000  0.13790000  0.50830000  0.29 -0.2062880767
O  O102  1  0.45100000  0.11400000  0.48290000  0.29 -0.0303098168
O  O103  1  0.38020000  0.24660000  0.26130000  0.29 -0.0484775478
O  O104  1  0.23340000  0.12690000  0.29320000  0.29 0.0199444665
O  O105  1  0.26380000  0.16560000  0.26370000  0.29 -0.1672876754
O  O106  1  0.35100000  0.17700000  0.27770000  0.29 -0.0195933134
O  O107  1  0.57670000  0.86210000  0.50830000  0.29 -0.2062880767
O  O108  1  0.54900000  0.88600000  0.48290000  0.29 -0.0195933134
O  O109  1  0.61980000  0.75340000  0.26130000  0.29 -0.0484775478
O  O110  1  0.76660000  0.87310000  0.29320000  0.29 0.0199444665
O  O111  1  0.73620000  0.83440000  0.26370000  0.29 -0.1672876754
O  O112  1  0.64900000  0.82300000  0.27770000  0.29 -0.0195933134
O  O113  1  0.26680000  0.60410000  0.51880000  0.42 -0.1517758348
O  O114  1  0.30700000  0.54880000  0.56830000  0.42 -0.1091060943
O  O115  1  0.73320000  0.39590000  0.51880000  0.42 -0.1517758348
O  O116  1  0.69300000  0.45120000  0.56830000  0.42 -0.1091060943
O  O117  1  0.89590000  0.76680000  0.01880000  0.42 -0.1517758348
O  O118  1  0.95120000  0.80700000  0.06830000  0.42 -0.1091060943
O  O119  1  0.10410000  0.23320000  0.01880000  0.42 -0.1517758348
O  O120  1  0.04880000  0.19300000  0.06830000  0.42 -0.1091060943
O  O121  1  0.23320000  0.10410000  0.98120000  0.42 -0.1517758348
O  O122  1  0.19300000  0.04880000  0.93170000  0.42 -0.1091060943
O  O123  1  0.76680000  0.89590000  0.98120000  0.42 -0.1517758348
O  O124  1  0.80700000  0.95120000  0.93170000  0.42 -0.1091060943
O  O125  1  0.60410000  0.26680000  0.48120000  0.42 -0.1517758348
O  O126  1  0.54880000  0.30700000  0.43170000  0.42 -0.1091060943
O  O127  1  0.39590000  0.73320000  0.48120000  0.42 -0.1517758348
O  O128  1  0.45120000  0.69300000  0.43170000  0.42 -0.1091060943
