# DDEC6 charges by PACMAN v1.1 (https://github.com/mtap-research/PACMAN-charge/)
data_c9cc02405k2_3_FSR_pacman
_symmetry_space_group_name_H-M   'P 1'
_cell_length_a   17.29540000
_cell_length_b   33.20590000
_cell_length_c   33.20590000
_cell_angle_alpha   90.00000000
_cell_angle_beta   90.00000000
_cell_angle_gamma   90.00000000
_symmetry_Int_Tables_number   1
_chemical_formula_structural   Zn3H28C54N7O8
_chemical_formula_sum   'Zn24 H224 C432 N56 O64'
_cell_volume   19070.45794396
_cell_formula_units_Z   8
loop_
 _symmetry_equiv_pos_site_id
 _symmetry_equiv_pos_as_xyz
  1  'x, y, z'
loop_
 _atom_site_type_symbol
 _atom_site_label
 _atom_site_symmetry_multiplicity
 _atom_site_fract_x
 _atom_site_fract_y
 _atom_site_fract_z
 _atom_site_occupancy
 _atom_site_charge
Zn  Zn1  1  0.32969000  0.25042000  0.25317000  1.0 0.7208688564
Zn  Zn2  1  0.67031000  0.74958000  0.25317000  1.0 0.7208688564
Zn  Zn3  1  0.17031000  0.75042000  0.24683000  1.0 0.7208688564
Zn  Zn4  1  0.82969000  0.24958000  0.24683000  1.0 0.7208688564
Zn  Zn5  1  0.67031000  0.74958000  0.74683000  1.0 0.7208688564
Zn  Zn6  1  0.32969000  0.25042000  0.74683000  1.0 0.7208688564
Zn  Zn7  1  0.82969000  0.24958000  0.75317000  1.0 0.7208688564
Zn  Zn8  1  0.17031000  0.75042000  0.75317000  1.0 0.7208688564
Zn  Zn9  1  0.21988000  0.49662000  0.50000000  1.0 0.6395037628
Zn  Zn10  1  0.78012000  0.50338000  0.50000000  1.0 0.6395037628
Zn  Zn11  1  0.28012000  0.99662000  0.00000000  1.0 0.6395037628
Zn  Zn12  1  0.71988000  0.00338000  0.00000000  1.0 0.6395037628
Zn  Zn13  1  0.33976000  0.74334000  0.25325000  1.0 0.768379227
Zn  Zn14  1  0.66024000  0.25666000  0.25325000  1.0 0.768379227
Zn  Zn15  1  0.16024000  0.24334000  0.24675000  1.0 0.768379227
Zn  Zn16  1  0.83976000  0.75666000  0.24675000  1.0 0.768379227
Zn  Zn17  1  0.66024000  0.25666000  0.74675000  1.0 0.768379227
Zn  Zn18  1  0.33976000  0.74334000  0.74675000  1.0 0.768379227
Zn  Zn19  1  0.83976000  0.75666000  0.75325000  1.0 0.768379227
Zn  Zn20  1  0.16024000  0.24334000  0.75325000  1.0 0.768379227
Zn  Zn21  1  0.24890000  0.49653000  0.00000000  1.0 0.6315798468
Zn  Zn22  1  0.75110000  0.50347000  0.00000000  1.0 0.6315798468
Zn  Zn23  1  0.25110000  0.99653000  0.50000000  1.0 0.6315798468
Zn  Zn24  1  0.74890000  0.00347000  0.50000000  1.0 0.6315798468
H  H1  1  0.32250000  0.33960000  0.34190000  1.0 0.1206829608
H  H2  1  0.67750000  0.66040000  0.34190000  1.0 0.1206829608
H  H3  1  0.17750000  0.83960000  0.15810000  1.0 0.1206829608
H  H4  1  0.82250000  0.16040000  0.15810000  1.0 0.1206829608
H  H5  1  0.67750000  0.66040000  0.65810000  1.0 0.1206829608
H  H6  1  0.32250000  0.33960000  0.65810000  1.0 0.1206829608
H  H7  1  0.82250000  0.16040000  0.84190000  1.0 0.1206829608
H  H8  1  0.17750000  0.83960000  0.84190000  1.0 0.1206829608
H  H9  1  0.31940000  0.39050000  0.38730000  1.0 0.1277204325
H  H10  1  0.68060000  0.60950000  0.38730000  1.0 0.1277204325
H  H11  1  0.18060000  0.89050000  0.11270000  1.0 0.1277204325
H  H12  1  0.81940000  0.10950000  0.11270000  1.0 0.1277204325
H  H13  1  0.68060000  0.60950000  0.61270000  1.0 0.1277204325
H  H14  1  0.31940000  0.39050000  0.61270000  1.0 0.1277204325
H  H15  1  0.81940000  0.10950000  0.88730000  1.0 0.1277204325
H  H16  1  0.18060000  0.89050000  0.88730000  1.0 0.1277204325
H  H17  1  0.08990000  0.38240000  0.38660000  1.0 0.1206829608
H  H18  1  0.91010000  0.61760000  0.38660000  1.0 0.1206829608
H  H19  1  0.41010000  0.88240000  0.11340000  1.0 0.1206829608
H  H20  1  0.58990000  0.11760000  0.11340000  1.0 0.1277204325
H  H21  1  0.91010000  0.61760000  0.61340000  1.0 0.1206829608
H  H22  1  0.08990000  0.38240000  0.61340000  1.0 0.1206829608
H  H23  1  0.58990000  0.11760000  0.88660000  1.0 0.1206829608
H  H24  1  0.41010000  0.88240000  0.88660000  1.0 0.1206829608
H  H25  1  0.09850000  0.33740000  0.33690000  1.0 0.1277204325
H  H26  1  0.90150000  0.66260000  0.33690000  1.0 0.1277204325
H  H27  1  0.40150000  0.83740000  0.16310000  1.0 0.1277204325
H  H28  1  0.59850000  0.16260000  0.16310000  1.0 0.1277204325
H  H29  1  0.90150000  0.66260000  0.66310000  1.0 0.1277204325
H  H30  1  0.09850000  0.33740000  0.66310000  1.0 0.1277204325
H  H31  1  0.59850000  0.16260000  0.83690000  1.0 0.1277204325
H  H32  1  0.40150000  0.83740000  0.83690000  1.0 0.1277204325
H  H33  1  0.19870000  0.45930000  0.35040000  1.0 0.1277204325
H  H34  1  0.80130000  0.54070000  0.35040000  1.0 0.1277204325
H  H35  1  0.30130000  0.95930000  0.14960000  1.0 0.1277204325
H  H36  1  0.69870000  0.04070000  0.14960000  1.0 0.1277204325
H  H37  1  0.80130000  0.54070000  0.64960000  1.0 0.1277204325
H  H38  1  0.19870000  0.45930000  0.64960000  1.0 0.1277204325
H  H39  1  0.69870000  0.04070000  0.85040000  1.0 0.1277204325
H  H40  1  0.30130000  0.95930000  0.85040000  1.0 0.1277204325
H  H41  1  0.20270000  0.53390000  0.35020000  1.0 0.1277204325
H  H42  1  0.79730000  0.46610000  0.35020000  1.0 0.1277204325
H  H43  1  0.29730000  0.03390000  0.14980000  1.0 0.1277204325
H  H44  1  0.70270000  0.96610000  0.14980000  1.0 0.1277204325
H  H45  1  0.79730000  0.46610000  0.64980000  1.0 0.1277204325
H  H46  1  0.20270000  0.53390000  0.64980000  1.0 0.1277204325
H  H47  1  0.70270000  0.96610000  0.85020000  1.0 0.1277204325
H  H48  1  0.29730000  0.03390000  0.85020000  1.0 0.1277204325
H  H49  1  0.33200000  0.60470000  0.39000000  1.0 0.1277204325
H  H50  1  0.66800000  0.39530000  0.39000000  1.0 0.1277204325
H  H51  1  0.16800000  0.10470000  0.11000000  1.0 0.1277204325
H  H52  1  0.83200000  0.89530000  0.11000000  1.0 0.1277204325
H  H53  1  0.66800000  0.39530000  0.61000000  1.0 0.1277204325
H  H54  1  0.33200000  0.60470000  0.61000000  1.0 0.1277204325
H  H55  1  0.83200000  0.89530000  0.89000000  1.0 0.1277204325
H  H56  1  0.16800000  0.10470000  0.89000000  1.0 0.1277204325
H  H57  1  0.34020000  0.65280000  0.34560000  1.0 0.1277204325
H  H58  1  0.65980000  0.34720000  0.34560000  1.0 0.1277204325
H  H59  1  0.15980000  0.15280000  0.15440000  1.0 0.1277204325
H  H60  1  0.84020000  0.84720000  0.15440000  1.0 0.1277204325
H  H61  1  0.65980000  0.34720000  0.65440000  1.0 0.1277204325
H  H62  1  0.34020000  0.65280000  0.65440000  1.0 0.1277204325
H  H63  1  0.84020000  0.84720000  0.84560000  1.0 0.1277204325
H  H64  1  0.15980000  0.15280000  0.84560000  1.0 0.1277204325
H  H65  1  0.11130000  0.65860000  0.33960000  1.0 0.1277204325
H  H66  1  0.88870000  0.34140000  0.33960000  1.0 0.1277204325
H  H67  1  0.38870000  0.15860000  0.16040000  1.0 0.1277204325
H  H68  1  0.61130000  0.84140000  0.16040000  1.0 0.1277204325
H  H69  1  0.88870000  0.34140000  0.66040000  1.0 0.1277204325
H  H70  1  0.11130000  0.65860000  0.66040000  1.0 0.1277204325
H  H71  1  0.61130000  0.84140000  0.83960000  1.0 0.1277204325
H  H72  1  0.38870000  0.15860000  0.83960000  1.0 0.1277204325
H  H73  1  0.10350000  0.61110000  0.39160000  1.0 0.1277204325
H  H74  1  0.89650000  0.38890000  0.39160000  1.0 0.1277204325
H  H75  1  0.39650000  0.11110000  0.10840000  1.0 0.1277204325
H  H76  1  0.60350000  0.88890000  0.10840000  1.0 0.1277204325
H  H77  1  0.89650000  0.38890000  0.60840000  1.0 0.1277204325
H  H78  1  0.10350000  0.61110000  0.60840000  1.0 0.1277204325
H  H79  1  0.60350000  0.88890000  0.89160000  1.0 0.1277204325
H  H80  1  0.39650000  0.11110000  0.89160000  1.0 0.1277204325
H  H81  1  0.19520000  0.34710000  0.46190000  1.0 0.1277204325
H  H82  1  0.80480000  0.65290000  0.46190000  1.0 0.1277204325
H  H83  1  0.30480000  0.84710000  0.03810000  1.0 0.1277204325
H  H84  1  0.69520000  0.15290000  0.03810000  1.0 0.1277204325
H  H85  1  0.80480000  0.65290000  0.53810000  1.0 0.1277204325
H  H86  1  0.19520000  0.34710000  0.53810000  1.0 0.1277204325
H  H87  1  0.69520000  0.15290000  0.96190000  1.0 0.1277204325
H  H88  1  0.30480000  0.84710000  0.96190000  1.0 0.1277204325
H  H89  1  0.21670000  0.64620000  0.46310000  1.0 0.1277204325
H  H90  1  0.78330000  0.35380000  0.46310000  1.0 0.1277204325
H  H91  1  0.28330000  0.14620000  0.03690000  1.0 0.1277204325
H  H92  1  0.71670000  0.85380000  0.03690000  1.0 0.1277204325
H  H93  1  0.78330000  0.35380000  0.53690000  1.0 0.1277204325
H  H94  1  0.21670000  0.64620000  0.53690000  1.0 0.1277204325
H  H95  1  0.71670000  0.85380000  0.96310000  1.0 0.1277204325
H  H96  1  0.28330000  0.14620000  0.96310000  1.0 0.1277204325
H  H97  1  0.36370000  0.59980000  0.11280000  1.0 0.1206829608
H  H98  1  0.63630000  0.40020000  0.11280000  1.0 0.1206829608
H  H99  1  0.13630000  0.09980000  0.38720000  1.0 0.1206829608
H  H100  1  0.86370000  0.90020000  0.38720000  1.0 0.1206829608
H  H101  1  0.63630000  0.40020000  0.88720000  1.0 0.1206829608
H  H102  1  0.36370000  0.59980000  0.88720000  1.0 0.1206829608
H  H103  1  0.86370000  0.90020000  0.61280000  1.0 0.1206829608
H  H104  1  0.13630000  0.09980000  0.61280000  1.0 0.1206829608
H  H105  1  0.36980000  0.64840000  0.16280000  1.0 0.1277204325
H  H106  1  0.63020000  0.35160000  0.16280000  1.0 0.1277204325
H  H107  1  0.13020000  0.14840000  0.33720000  1.0 0.1277204325
H  H108  1  0.86980000  0.85160000  0.33720000  1.0 0.1277204325
H  H109  1  0.63020000  0.35160000  0.83720000  1.0 0.1277204325
H  H110  1  0.36980000  0.64840000  0.83720000  1.0 0.1277204325
H  H111  1  0.86980000  0.85160000  0.66280000  1.0 0.1277204325
H  H112  1  0.13020000  0.14840000  0.66280000  1.0 0.1277204325
H  H113  1  0.13990000  0.66400000  0.15530000  1.0 0.1206829608
H  H114  1  0.86010000  0.33600000  0.15530000  1.0 0.1206829608
H  H115  1  0.36010000  0.16400000  0.34470000  1.0 0.1206829608
H  H116  1  0.63990000  0.83600000  0.34470000  1.0 0.1206829608
H  H117  1  0.86010000  0.33600000  0.84470000  1.0 0.1206829608
H  H118  1  0.13990000  0.66400000  0.84470000  1.0 0.1206829608
H  H119  1  0.63990000  0.83600000  0.65530000  1.0 0.1206829608
H  H120  1  0.36010000  0.16400000  0.65530000  1.0 0.1206829608
H  H121  1  0.13380000  0.61540000  0.10520000  1.0 0.1277204325
H  H122  1  0.86620000  0.38460000  0.10520000  1.0 0.1277204325
H  H123  1  0.36620000  0.11540000  0.39480000  1.0 0.1277204325
H  H124  1  0.63380000  0.88460000  0.39480000  1.0 0.1277204325
H  H125  1  0.86620000  0.38460000  0.89480000  1.0 0.1277204325
H  H126  1  0.13380000  0.61540000  0.89480000  1.0 0.1277204325
H  H127  1  0.63380000  0.88460000  0.60520000  1.0 0.1277204325
H  H128  1  0.36620000  0.11540000  0.60520000  1.0 0.1277204325
H  H129  1  0.24040000  0.53330000  0.14910000  1.0 0.1277204325
H  H130  1  0.75960000  0.46670000  0.14910000  1.0 0.1277204325
H  H131  1  0.25960000  0.03330000  0.35090000  1.0 0.1277204325
H  H132  1  0.74040000  0.96670000  0.35090000  1.0 0.1277204325
H  H133  1  0.75960000  0.46670000  0.85090000  1.0 0.1277204325
H  H134  1  0.24040000  0.53330000  0.85090000  1.0 0.1277204325
H  H135  1  0.74040000  0.96670000  0.64910000  1.0 0.1277204325
H  H136  1  0.25960000  0.03330000  0.64910000  1.0 0.1277204325
H  H137  1  0.26150000  0.46000000  0.15120000  1.0 0.1378668187
H  H138  1  0.73850000  0.54000000  0.15120000  1.0 0.1378668187
H  H139  1  0.23850000  0.96000000  0.34880000  1.0 0.1378668187
H  H140  1  0.76150000  0.04000000  0.34880000  1.0 0.1378668187
H  H141  1  0.73850000  0.54000000  0.84880000  1.0 0.1378668187
H  H142  1  0.26150000  0.46000000  0.84880000  1.0 0.1378668187
H  H143  1  0.76150000  0.04000000  0.65120000  1.0 0.1378668187
H  H144  1  0.23850000  0.96000000  0.65120000  1.0 0.1378668187
H  H145  1  0.36290000  0.39260000  0.12060000  1.0 0.1206829608
H  H146  1  0.63710000  0.60740000  0.12060000  1.0 0.1206829608
H  H147  1  0.13710000  0.89260000  0.37940000  1.0 0.1206829608
H  H148  1  0.86290000  0.10740000  0.37940000  1.0 0.1206829608
H  H149  1  0.63710000  0.60740000  0.87940000  1.0 0.1206829608
H  H150  1  0.36290000  0.39260000  0.87940000  1.0 0.1206829608
H  H151  1  0.86290000  0.10740000  0.62060000  1.0 0.1206829608
H  H152  1  0.13710000  0.89260000  0.62060000  1.0 0.1206829608
H  H153  1  0.35750000  0.34310000  0.16980000  1.0 0.1108683843
H  H154  1  0.64250000  0.65690000  0.16980000  1.0 0.1108683843
H  H155  1  0.14250000  0.84310000  0.33020000  1.0 0.1108683843
H  H156  1  0.85750000  0.15690000  0.33020000  1.0 0.1108683843
H  H157  1  0.64250000  0.65690000  0.83020000  1.0 0.1108683843
H  H158  1  0.35750000  0.34310000  0.83020000  1.0 0.1108683843
H  H159  1  0.85750000  0.15690000  0.66980000  1.0 0.1108683843
H  H160  1  0.14250000  0.84310000  0.66980000  1.0 0.1108683843
H  H161  1  0.12950000  0.33040000  0.15020000  1.0 0.1108683843
H  H162  1  0.87050000  0.66960000  0.15020000  1.0 0.1108683843
H  H163  1  0.37050000  0.83040000  0.34980000  1.0 0.1108683843
H  H164  1  0.62950000  0.16960000  0.34980000  1.0 0.1108683843
H  H165  1  0.87050000  0.66960000  0.84980000  1.0 0.1108683843
H  H166  1  0.12950000  0.33040000  0.84980000  1.0 0.1108683843
H  H167  1  0.62950000  0.16960000  0.65020000  1.0 0.1108683843
H  H168  1  0.37050000  0.83040000  0.65020000  1.0 0.1108683843
H  H169  1  0.13490000  0.37990000  0.10100000  1.0 0.1206829608
H  H170  1  0.86510000  0.62010000  0.10100000  1.0 0.1206829608
H  H171  1  0.36510000  0.87990000  0.39900000  1.0 0.1206829608
H  H172  1  0.63490000  0.12010000  0.39900000  1.0 0.1206829608
H  H173  1  0.86510000  0.62010000  0.89900000  1.0 0.1206829608
H  H174  1  0.13490000  0.37990000  0.89900000  1.0 0.1206829608
H  H175  1  0.63490000  0.12010000  0.60100000  1.0 0.1206829608
H  H176  1  0.36510000  0.87990000  0.60100000  1.0 0.1206829608
H  H177  1  0.24270000  0.34520000  0.03840000  1.0 0.1277204325
H  H178  1  0.75730000  0.65480000  0.03840000  1.0 0.1277204325
H  H179  1  0.25730000  0.84520000  0.46160000  1.0 0.1206829608
H  H180  1  0.74270000  0.15480000  0.46160000  1.0 0.1277204325
H  H181  1  0.75730000  0.65480000  0.96160000  1.0 0.1206829608
H  H182  1  0.24270000  0.34520000  0.96160000  1.0 0.1206829608
H  H183  1  0.74270000  0.15480000  0.53840000  1.0 0.1277204325
H  H184  1  0.25730000  0.84520000  0.53840000  1.0 0.1206829608
H  H185  1  0.24460000  0.64520000  0.03760000  1.0 0.1277204325
H  H186  1  0.75540000  0.35480000  0.03760000  1.0 0.1277204325
H  H187  1  0.25540000  0.14520000  0.46240000  1.0 0.1277204325
H  H188  1  0.74460000  0.85480000  0.46240000  1.0 0.1277204325
H  H189  1  0.75540000  0.35480000  0.96240000  1.0 0.1277204325
H  H190  1  0.24460000  0.64520000  0.96240000  1.0 0.1277204325
H  H191  1  0.74460000  0.85480000  0.53760000  1.0 0.1277204325
H  H192  1  0.25540000  0.14520000  0.53760000  1.0 0.1277204325
H  H193  1  0.62800000  0.25690000  0.35670000  0.5 0.1277204325
H  H194  1  0.37200000  0.74310000  0.35670000  0.5 0.1277204325
H  H195  1  0.87200000  0.75690000  0.14330000  0.5 0.1277204325
H  H196  1  0.12800000  0.24310000  0.14330000  0.5 0.1277204325
H  H197  1  0.37200000  0.74310000  0.64330000  0.5 0.1277204325
H  H198  1  0.62800000  0.25690000  0.64330000  0.5 0.1277204325
H  H199  1  0.12800000  0.24310000  0.85670000  0.5 0.1277204325
H  H200  1  0.87200000  0.75690000  0.85670000  0.5 0.1277204325
H  H201  1  0.55880000  0.26170000  0.41600000  0.5 0.1206829608
H  H202  1  0.44120000  0.73830000  0.41600000  0.5 0.1206829608
H  H203  1  0.94120000  0.76170000  0.08400000  0.5 0.1206829608
H  H204  1  0.05880000  0.23830000  0.08400000  0.5 0.1206829608
H  H205  1  0.44120000  0.73830000  0.58400000  0.5 0.1206829608
H  H206  1  0.55880000  0.26170000  0.58400000  0.5 0.1206829608
H  H207  1  0.05880000  0.23830000  0.91600000  0.5 0.1206829608
H  H208  1  0.94120000  0.76170000  0.91600000  0.5 0.1206829608
H  H209  1  0.42880000  0.24550000  0.41590000  0.5 0.1206829608
H  H210  1  0.57120000  0.75450000  0.41590000  0.5 0.1206829608
H  H211  1  0.07120000  0.74550000  0.08410000  0.5 0.1206829608
H  H212  1  0.92880000  0.25450000  0.08410000  0.5 0.1206829608
H  H213  1  0.57120000  0.75450000  0.58410000  0.5 0.1206829608
H  H214  1  0.42880000  0.24550000  0.58410000  0.5 0.1206829608
H  H215  1  0.92880000  0.25450000  0.91590000  0.5 0.1206829608
H  H216  1  0.07120000  0.74550000  0.91590000  0.5 0.1206829608
H  H217  1  0.36110000  0.25470000  0.35650000  0.5 0.1277204325
H  H218  1  0.63890000  0.74530000  0.35650000  0.5 0.1277204325
H  H219  1  0.13890000  0.75470000  0.14350000  0.5 0.1277204325
H  H220  1  0.86110000  0.24530000  0.14350000  0.5 0.1277204325
H  H221  1  0.63890000  0.74530000  0.64350000  0.5 0.1277204325
H  H222  1  0.36110000  0.25470000  0.64350000  0.5 0.1277204325
H  H223  1  0.86110000  0.24530000  0.85650000  0.5 0.1277204325
H  H224  1  0.13890000  0.75470000  0.85650000  0.5 0.1277204325
H  H225  1  0.35590000  0.35280000  0.25610000  0.5 0.1378668187
H  H226  1  0.64410000  0.64720000  0.25610000  0.5 0.1378668187
H  H227  1  0.14410000  0.85280000  0.24390000  0.5 0.1378668187
H  H228  1  0.85590000  0.14720000  0.24390000  0.5 0.1378668187
H  H229  1  0.64410000  0.64720000  0.74390000  0.5 0.1378668187
H  H230  1  0.35590000  0.35280000  0.74390000  0.5 0.1378668187
H  H231  1  0.85590000  0.14720000  0.75610000  0.5 0.1378668187
H  H232  1  0.14410000  0.85280000  0.75610000  0.5 0.1378668187
H  H233  1  0.41630000  0.41310000  0.25920000  0.5 0.1277204325
H  H234  1  0.58370000  0.58690000  0.25920000  0.5 0.1277204325
H  H235  1  0.08370000  0.91310000  0.24080000  0.5 0.1277204325
H  H236  1  0.91630000  0.08690000  0.24080000  0.5 0.1277204325
H  H237  1  0.58370000  0.58690000  0.74080000  0.5 0.1277204325
H  H238  1  0.41630000  0.41310000  0.74080000  0.5 0.1277204325
H  H239  1  0.91630000  0.08690000  0.75920000  0.5 0.1277204325
H  H240  1  0.08370000  0.91310000  0.75920000  0.5 0.1277204325
H  H241  1  0.54660000  0.41710000  0.25400000  0.5 0.1206829608
H  H242  1  0.45340000  0.58290000  0.25400000  0.5 0.1206829608
H  H243  1  0.95340000  0.91710000  0.24600000  0.5 0.1206829608
H  H244  1  0.04660000  0.08290000  0.24600000  0.5 0.1206829608
H  H245  1  0.45340000  0.58290000  0.74600000  0.5 0.1206829608
H  H246  1  0.54660000  0.41710000  0.74600000  0.5 0.1206829608
H  H247  1  0.04660000  0.08290000  0.75400000  0.5 0.1206829608
H  H248  1  0.95340000  0.91710000  0.75400000  0.5 0.1206829608
H  H249  1  0.62030000  0.36020000  0.25110000  0.5 0.1378668187
H  H250  1  0.37970000  0.63980000  0.25110000  0.5 0.1378668187
H  H251  1  0.87970000  0.86020000  0.24890000  0.5 0.1378668187
H  H252  1  0.12030000  0.13980000  0.24890000  0.5 0.1378668187
H  H253  1  0.37970000  0.63980000  0.74890000  0.5 0.1378668187
H  H254  1  0.62030000  0.36020000  0.74890000  0.5 0.1378668187
H  H255  1  0.12030000  0.13980000  0.75110000  0.5 0.1378668187
H  H256  1  0.87970000  0.86020000  0.75110000  0.5 0.1378668187
C  C1  1  0.21590000  0.30080000  0.30440000  1.0 0.6010783023
C  C2  1  0.78410000  0.69920000  0.30440000  1.0 0.6010783023
C  C3  1  0.28410000  0.80080000  0.19560000  1.0 0.6010783023
C  C4  1  0.71590000  0.19920000  0.19560000  1.0 0.6010783023
C  C5  1  0.78410000  0.69920000  0.69560000  1.0 0.6010783023
C  C6  1  0.21590000  0.30080000  0.69560000  1.0 0.6010783023
C  C7  1  0.71590000  0.19920000  0.80440000  1.0 0.6010783023
C  C8  1  0.28410000  0.80080000  0.80440000  1.0 0.6010783023
C  C9  1  0.20900000  0.33268000  0.33606000  1.0 -0.0198324805
C  C10  1  0.79100000  0.66732000  0.33606000  1.0 -0.0198324805
C  C11  1  0.29100000  0.83268000  0.16394000  1.0 -0.0198324805
C  C12  1  0.70900000  0.16732000  0.16394000  1.0 -0.0198324805
C  C13  1  0.79100000  0.66732000  0.66394000  1.0 -0.0198324805
C  C14  1  0.20900000  0.33268000  0.66394000  1.0 -0.0198324805
C  C15  1  0.70900000  0.16732000  0.83606000  1.0 -0.0198324805
C  C16  1  0.29100000  0.83268000  0.83606000  1.0 -0.0198324805
C  C17  1  0.27500000  0.34910000  0.35100000  1.0 -0.1090430599
C  C18  1  0.72500000  0.65090000  0.35100000  1.0 -0.1090430599
C  C19  1  0.22500000  0.84910000  0.14900000  1.0 -0.1207214568
C  C20  1  0.77500000  0.15090000  0.14900000  1.0 -0.1090430599
C  C21  1  0.72500000  0.65090000  0.64900000  1.0 -0.1090430599
C  C22  1  0.27500000  0.34910000  0.64900000  1.0 -0.1090430599
C  C23  1  0.77500000  0.15090000  0.85100000  1.0 -0.1090430599
C  C24  1  0.22500000  0.84910000  0.85100000  1.0 -0.1090430599
C  C25  1  0.27350000  0.37870000  0.37870000  1.0 -0.1415623997
C  C26  1  0.72650000  0.62130000  0.37870000  1.0 -0.1415623997
C  C27  1  0.22650000  0.87870000  0.12130000  1.0 -0.1415623997
C  C28  1  0.77350000  0.12130000  0.12130000  1.0 -0.1415623997
C  C29  1  0.72650000  0.62130000  0.62130000  1.0 -0.1415623997
C  C30  1  0.27350000  0.37870000  0.62130000  1.0 -0.1415623997
C  C31  1  0.77350000  0.12130000  0.87870000  1.0 -0.1415623997
C  C32  1  0.22650000  0.87870000  0.87870000  1.0 -0.1415623997
C  C33  1  0.20020000  0.39220000  0.39519000  1.0 0.0905371042
C  C34  1  0.79980000  0.60780000  0.39519000  1.0 0.0905371042
C  C35  1  0.29980000  0.89220000  0.10481000  1.0 0.0905371042
C  C36  1  0.70020000  0.10780000  0.10481000  1.0 0.0905371042
C  C37  1  0.79980000  0.60780000  0.60481000  1.0 0.0905371042
C  C38  1  0.20020000  0.39220000  0.60481000  1.0 0.0905371042
C  C39  1  0.70020000  0.10780000  0.89519000  1.0 0.0905371042
C  C40  1  0.29980000  0.89220000  0.89519000  1.0 0.0905371042
C  C41  1  0.13890000  0.37470000  0.37790000  1.0 -0.1468163051
C  C42  1  0.86110000  0.62530000  0.37790000  1.0 -0.1468163051
C  C43  1  0.36110000  0.87470000  0.12210000  1.0 -0.1468163051
C  C44  1  0.63890000  0.12530000  0.12210000  1.0 -0.1468163051
C  C45  1  0.86110000  0.62530000  0.62210000  1.0 -0.1468163051
C  C46  1  0.13890000  0.37470000  0.62210000  1.0 -0.1468163051
C  C47  1  0.63890000  0.12530000  0.87790000  1.0 -0.1468163051
C  C48  1  0.36110000  0.87470000  0.87790000  1.0 -0.1468163051
C  C49  1  0.14380000  0.34680000  0.34860000  1.0 -0.0998509711
C  C50  1  0.85620000  0.65320000  0.34860000  1.0 -0.0998509711
C  C51  1  0.35620000  0.84680000  0.15140000  1.0 -0.0998509711
C  C52  1  0.64380000  0.15320000  0.15140000  1.0 -0.0998509711
C  C53  1  0.85620000  0.65320000  0.65140000  1.0 -0.0998509711
C  C54  1  0.14380000  0.34680000  0.65140000  1.0 -0.0998509711
C  C55  1  0.64380000  0.15320000  0.84860000  1.0 -0.0998509711
C  C56  1  0.35620000  0.84680000  0.84860000  1.0 -0.0998509711
C  C57  1  0.20390000  0.42420000  0.42709000  1.0 -0.0998509711
C  C58  1  0.79610000  0.57580000  0.42709000  1.0 -0.0998509711
C  C59  1  0.29610000  0.92420000  0.07291000  1.0 -0.0998509711
C  C60  1  0.70390000  0.07580000  0.07291000  1.0 -0.0998509711
C  C61  1  0.79610000  0.57580000  0.57291000  1.0 -0.0998509711
C  C62  1  0.20390000  0.42420000  0.57291000  1.0 -0.0998509711
C  C63  1  0.70390000  0.07580000  0.92709000  1.0 -0.0998509711
C  C64  1  0.29610000  0.92420000  0.92709000  1.0 -0.0998509711
C  C65  1  0.20230000  0.46386000  0.41540000  1.0 0.2296615334
C  C66  1  0.79770000  0.53614000  0.41540000  1.0 0.2296615334
C  C67  1  0.29770000  0.96386000  0.08460000  1.0 0.2296615334
C  C68  1  0.70230000  0.03614000  0.08460000  1.0 0.2296615334
C  C69  1  0.79770000  0.53614000  0.58460000  1.0 0.2296615334
C  C70  1  0.20230000  0.46386000  0.58460000  1.0 0.2296615334
C  C71  1  0.70230000  0.03614000  0.91540000  1.0 0.2296615334
C  C72  1  0.29770000  0.96386000  0.91540000  1.0 0.2296615334
C  C73  1  0.20080000  0.47620000  0.37280000  1.0 -0.2169141492
C  C74  1  0.79920000  0.52380000  0.37280000  1.0 -0.2169141492
C  C75  1  0.29920000  0.97620000  0.12720000  1.0 -0.2169141492
C  C76  1  0.70080000  0.02380000  0.12720000  1.0 -0.2169141492
C  C77  1  0.79920000  0.52380000  0.62720000  1.0 -0.2169141492
C  C78  1  0.20080000  0.47620000  0.62720000  1.0 -0.2169141492
C  C79  1  0.70080000  0.02380000  0.87280000  1.0 -0.2169141492
C  C80  1  0.29920000  0.97620000  0.87280000  1.0 -0.2169141492
C  C81  1  0.20320000  0.51730000  0.37270000  1.0 -0.1988904572
C  C82  1  0.79680000  0.48270000  0.37270000  1.0 -0.1988904572
C  C83  1  0.29680000  0.01730000  0.12730000  1.0 -0.1988904572
C  C84  1  0.70320000  0.98270000  0.12730000  1.0 -0.1988904572
C  C85  1  0.79680000  0.48270000  0.62730000  1.0 -0.1988904572
C  C86  1  0.20320000  0.51730000  0.62730000  1.0 -0.1988904572
C  C87  1  0.70320000  0.98270000  0.87270000  1.0 -0.1988904572
C  C88  1  0.29680000  0.01730000  0.87270000  1.0 -0.1988904572
C  C89  1  0.20640000  0.52990000  0.41280000  1.0 0.1494691192
C  C90  1  0.79360000  0.47010000  0.41280000  1.0 0.1494691192
C  C91  1  0.29360000  0.02990000  0.08720000  1.0 0.1494691192
C  C92  1  0.70640000  0.97010000  0.08720000  1.0 0.1494691192
C  C93  1  0.79360000  0.47010000  0.58720000  1.0 0.1494691192
C  C94  1  0.20640000  0.52990000  0.58720000  1.0 0.1494691192
C  C95  1  0.70640000  0.97010000  0.91280000  1.0 0.1494691192
C  C96  1  0.29360000  0.02990000  0.91280000  1.0 0.1494691192
C  C97  1  0.21040000  0.57019000  0.42700000  1.0 -0.0573745287
C  C98  1  0.78960000  0.42981000  0.42700000  1.0 -0.0573745287
C  C99  1  0.28960000  0.07019000  0.07300000  1.0 -0.0573745287
C  C100  1  0.71040000  0.92981000  0.07300000  1.0 -0.0573745287
C  C101  1  0.78960000  0.42981000  0.57300000  1.0 -0.0573745287
C  C102  1  0.21040000  0.57019000  0.57300000  1.0 -0.0573745287
C  C103  1  0.71040000  0.92981000  0.92700000  1.0 -0.0573745287
C  C104  1  0.28960000  0.07019000  0.92700000  1.0 -0.0573745287
C  C105  1  0.21630000  0.60090000  0.39470000  1.0 0.0830439448
C  C106  1  0.78370000  0.39910000  0.39470000  1.0 0.0830439448
C  C107  1  0.28370000  0.10090000  0.10530000  1.0 0.0830439448
C  C108  1  0.71630000  0.89910000  0.10530000  1.0 0.0830439448
C  C109  1  0.78370000  0.39910000  0.60530000  1.0 0.0830439448
C  C110  1  0.21630000  0.60090000  0.60530000  1.0 0.0830439448
C  C111  1  0.71630000  0.89910000  0.89470000  1.0 0.0830439448
C  C112  1  0.28370000  0.10090000  0.89470000  1.0 0.0830439448
C  C113  1  0.28640000  0.61570000  0.38000000  1.0 -0.1207214568
C  C114  1  0.71360000  0.38430000  0.38000000  1.0 -0.1207214568
C  C115  1  0.21360000  0.11570000  0.12000000  1.0 -0.1207214568
C  C116  1  0.78640000  0.88430000  0.12000000  1.0 -0.1207214568
C  C117  1  0.71360000  0.38430000  0.62000000  1.0 -0.1207214568
C  C118  1  0.28640000  0.61570000  0.62000000  1.0 -0.1207214568
C  C119  1  0.78640000  0.88430000  0.88000000  1.0 -0.1207214568
C  C120  1  0.21360000  0.11570000  0.88000000  1.0 -0.1207214568
C  C121  1  0.29120000  0.64390000  0.35300000  1.0 -0.0998509711
C  C122  1  0.70880000  0.35610000  0.35300000  1.0 -0.0998509711
C  C123  1  0.20880000  0.14390000  0.14700000  1.0 -0.0998509711
C  C124  1  0.79120000  0.85610000  0.14700000  1.0 -0.0998509711
C  C125  1  0.70880000  0.35610000  0.64700000  1.0 -0.0998509711
C  C126  1  0.29120000  0.64390000  0.64700000  1.0 -0.0998509711
C  C127  1  0.79120000  0.85610000  0.85300000  1.0 -0.0998509711
C  C128  1  0.20880000  0.14390000  0.85300000  1.0 -0.0998509711
C  C129  1  0.22730000  0.66170000  0.33470000  1.0 -0.0998509711
C  C130  1  0.77270000  0.33830000  0.33470000  1.0 -0.0998509711
C  C131  1  0.27270000  0.16170000  0.16530000  1.0 -0.0998509711
C  C132  1  0.72730000  0.83830000  0.16530000  1.0 -0.0998509711
C  C133  1  0.77270000  0.33830000  0.66530000  1.0 -0.0998509711
C  C134  1  0.22730000  0.66170000  0.66530000  1.0 -0.0998509711
C  C135  1  0.72730000  0.83830000  0.83470000  1.0 -0.0998509711
C  C136  1  0.27270000  0.16170000  0.83470000  1.0 -0.0998509711
C  C137  1  0.22990000  0.69220000  0.30400000  1.0 0.523065374
C  C138  1  0.77010000  0.30780000  0.30400000  1.0 0.523065374
C  C139  1  0.27010000  0.19220000  0.19600000  1.0 0.523065374
C  C140  1  0.72990000  0.80780000  0.19600000  1.0 0.523065374
C  C141  1  0.77010000  0.30780000  0.69600000  1.0 0.523065374
C  C142  1  0.22990000  0.69220000  0.69600000  1.0 0.523065374
C  C143  1  0.72990000  0.80780000  0.80400000  1.0 0.523065374
C  C144  1  0.27010000  0.19220000  0.80400000  1.0 0.523065374
C  C145  1  0.15680000  0.64790000  0.35010000  1.0 -0.0901772044
C  C146  1  0.84320000  0.35210000  0.35010000  1.0 -0.0901772044
C  C147  1  0.34320000  0.14790000  0.14990000  1.0 -0.0998509711
C  C148  1  0.65680000  0.85210000  0.14990000  1.0 -0.0998509711
C  C149  1  0.84320000  0.35210000  0.64990000  1.0 -0.0901772044
C  C150  1  0.15680000  0.64790000  0.64990000  1.0 -0.0998509711
C  C151  1  0.65680000  0.85210000  0.85010000  1.0 -0.0901772044
C  C152  1  0.34320000  0.14790000  0.85010000  1.0 -0.0901772044
C  C153  1  0.15130000  0.61830000  0.38100000  1.0 -0.1415623997
C  C154  1  0.84870000  0.38170000  0.38100000  1.0 -0.1415623997
C  C155  1  0.34870000  0.11830000  0.11900000  1.0 -0.1415623997
C  C156  1  0.65130000  0.88170000  0.11900000  1.0 -0.1415623997
C  C157  1  0.84870000  0.38170000  0.61900000  1.0 -0.1415623997
C  C158  1  0.15130000  0.61830000  0.61900000  1.0 -0.1415623997
C  C159  1  0.65130000  0.88170000  0.88100000  1.0 -0.1415623997
C  C160  1  0.34870000  0.11830000  0.88100000  1.0 -0.1415623997
C  C161  1  0.19840000  0.41108000  0.46690000  1.0 0.2061274878
C  C162  1  0.80160000  0.58892000  0.46690000  1.0 0.2061274878
C  C163  1  0.30160000  0.91108000  0.03310000  1.0 0.2061274878
C  C164  1  0.69840000  0.08892000  0.03310000  1.0 0.2061274878
C  C165  1  0.80160000  0.58892000  0.53310000  1.0 0.2061274878
C  C166  1  0.19840000  0.41108000  0.53310000  1.0 0.2061274878
C  C167  1  0.69840000  0.08892000  0.96690000  1.0 0.2061274878
C  C168  1  0.30160000  0.91108000  0.96690000  1.0 0.2061274878
C  C169  1  0.19630000  0.36946000  0.47880000  1.0 -0.2063121137
C  C170  1  0.80370000  0.63054000  0.47880000  1.0 -0.2063121137
C  C171  1  0.30370000  0.86946000  0.02120000  1.0 -0.2063121137
C  C172  1  0.69630000  0.13054000  0.02120000  1.0 -0.2063121137
C  C173  1  0.80370000  0.63054000  0.52120000  1.0 -0.2063121137
C  C174  1  0.19630000  0.36946000  0.52120000  1.0 -0.2063121137
C  C175  1  0.69630000  0.13054000  0.97880000  1.0 -0.2063121137
C  C176  1  0.30370000  0.86946000  0.97880000  1.0 -0.2063121137
C  C177  1  0.20870000  0.58310000  0.46720000  1.0 0.1713855999
C  C178  1  0.79130000  0.41690000  0.46720000  1.0 0.1713855999
C  C179  1  0.29130000  0.08310000  0.03280000  1.0 0.1713855999
C  C180  1  0.70870000  0.91690000  0.03280000  1.0 0.1713855999
C  C181  1  0.79130000  0.41690000  0.53280000  1.0 0.1713855999
C  C182  1  0.20870000  0.58310000  0.53280000  1.0 0.1713855999
C  C183  1  0.70870000  0.91690000  0.96720000  1.0 0.1713855999
C  C184  1  0.29130000  0.08310000  0.96720000  1.0 0.1713855999
C  C185  1  0.21380000  0.62370000  0.47970000  1.0 -0.2169141492
C  C186  1  0.78620000  0.37630000  0.47970000  1.0 -0.2169141492
C  C187  1  0.28620000  0.12370000  0.02030000  1.0 -0.2169141492
C  C188  1  0.71380000  0.87630000  0.02030000  1.0 -0.2169141492
C  C189  1  0.78620000  0.37630000  0.52030000  1.0 -0.2169141492
C  C190  1  0.21380000  0.62370000  0.52030000  1.0 -0.2169141492
C  C191  1  0.71380000  0.87630000  0.97970000  1.0 -0.2169141492
C  C192  1  0.28620000  0.12370000  0.97970000  1.0 -0.2169141492
C  C193  1  0.24320000  0.69280000  0.19450000  1.0 0.5359257764
C  C194  1  0.75680000  0.30720000  0.19450000  1.0 0.5359257764
C  C195  1  0.25680000  0.19280000  0.30550000  1.0 0.5359257764
C  C196  1  0.74320000  0.80720000  0.30550000  1.0 0.5359257764
C  C197  1  0.75680000  0.30720000  0.80550000  1.0 0.5359257764
C  C198  1  0.24320000  0.69280000  0.80550000  1.0 0.5359257764
C  C199  1  0.74320000  0.80720000  0.69450000  1.0 0.5359257764
C  C200  1  0.25680000  0.19280000  0.69450000  1.0 0.5359257764
C  C201  1  0.24810000  0.60270000  0.10400000  1.0 0.0905371042
C  C202  1  0.75190000  0.39730000  0.10400000  1.0 0.0905371042
C  C203  1  0.25190000  0.10270000  0.39600000  1.0 0.0905371042
C  C204  1  0.74810000  0.89730000  0.39600000  1.0 0.0905371042
C  C205  1  0.75190000  0.39730000  0.89600000  1.0 0.0905371042
C  C206  1  0.24810000  0.60270000  0.89600000  1.0 0.0905371042
C  C207  1  0.74810000  0.89730000  0.60400000  1.0 0.0905371042
C  C208  1  0.25190000  0.10270000  0.60400000  1.0 0.0905371042
C  C209  1  0.31890000  0.61260000  0.12130000  1.0 -0.1415623997
C  C210  1  0.68110000  0.38740000  0.12130000  1.0 -0.1415623997
C  C211  1  0.18110000  0.11260000  0.37870000  1.0 -0.1415623997
C  C212  1  0.81890000  0.88740000  0.37870000  1.0 -0.1415623997
C  C213  1  0.68110000  0.38740000  0.87870000  1.0 -0.1415623997
C  C214  1  0.31890000  0.61260000  0.87870000  1.0 -0.1415623997
C  C215  1  0.81890000  0.88740000  0.62130000  1.0 -0.1415623997
C  C216  1  0.18110000  0.11260000  0.62130000  1.0 -0.1415623997
C  C217  1  0.32250000  0.64180000  0.15130000  1.0 -0.0901772044
C  C218  1  0.67750000  0.35820000  0.15130000  1.0 -0.0901772044
C  C219  1  0.17750000  0.14180000  0.34870000  1.0 -0.0901772044
C  C220  1  0.82250000  0.85820000  0.34870000  1.0 -0.0901772044
C  C221  1  0.67750000  0.35820000  0.84870000  1.0 -0.0901772044
C  C222  1  0.32250000  0.64180000  0.84870000  1.0 -0.0901772044
C  C223  1  0.82250000  0.85820000  0.65130000  1.0 -0.0901772044
C  C224  1  0.17750000  0.14180000  0.65130000  1.0 -0.0901772044
C  C225  1  0.25550000  0.66100000  0.16400000  1.0 -0.0485411256
C  C226  1  0.74450000  0.33900000  0.16400000  1.0 -0.0485411256
C  C227  1  0.24450000  0.16100000  0.33600000  1.0 -0.0485411256
C  C228  1  0.75550000  0.83900000  0.33600000  1.0 -0.0485411256
C  C229  1  0.74450000  0.33900000  0.83600000  1.0 -0.0485411256
C  C230  1  0.25550000  0.66100000  0.83600000  1.0 -0.0485411256
C  C231  1  0.75550000  0.83900000  0.66400000  1.0 -0.0485411256
C  C232  1  0.24450000  0.16100000  0.66400000  1.0 -0.0485411256
C  C233  1  0.18480000  0.65110000  0.14680000  1.0 -0.1207214568
C  C234  1  0.81520000  0.34890000  0.14680000  1.0 -0.1207214568
C  C235  1  0.31520000  0.15110000  0.35320000  1.0 -0.1207214568
C  C236  1  0.68480000  0.84890000  0.35320000  1.0 -0.1207214568
C  C237  1  0.81520000  0.34890000  0.85320000  1.0 -0.1207214568
C  C238  1  0.18480000  0.65110000  0.85320000  1.0 -0.1207214568
C  C239  1  0.68480000  0.84890000  0.64680000  1.0 -0.1207214568
C  C240  1  0.31520000  0.15110000  0.64680000  1.0 -0.1207214568
C  C241  1  0.18110000  0.62200000  0.11680000  1.0 -0.1415623997
C  C242  1  0.81890000  0.37800000  0.11680000  1.0 -0.1415623997
C  C243  1  0.31890000  0.12200000  0.38320000  1.0 -0.1415623997
C  C244  1  0.68110000  0.87800000  0.38320000  1.0 -0.1415623997
C  C245  1  0.81890000  0.37800000  0.88320000  1.0 -0.1415623997
C  C246  1  0.18110000  0.62200000  0.88320000  1.0 -0.1415623997
C  C247  1  0.68110000  0.87800000  0.61680000  1.0 -0.1415623997
C  C248  1  0.31890000  0.12200000  0.61680000  1.0 -0.1415623997
C  C249  1  0.24520000  0.56950000  0.07120000  1.0 -0.0573745287
C  C250  1  0.75480000  0.43050000  0.07120000  1.0 -0.0573745287
C  C251  1  0.25480000  0.06950000  0.42880000  1.0 -0.0573745287
C  C252  1  0.74520000  0.93050000  0.42880000  1.0 -0.0573745287
C  C253  1  0.75480000  0.43050000  0.92880000  1.0 -0.0573745287
C  C254  1  0.24520000  0.56950000  0.92880000  1.0 -0.0573745287
C  C255  1  0.74520000  0.93050000  0.57120000  1.0 -0.0573745287
C  C256  1  0.25480000  0.06950000  0.57120000  1.0 -0.0573745287
C  C257  1  0.24350000  0.52880000  0.08680000  1.0 0.1617452062
C  C258  1  0.75650000  0.47120000  0.08680000  1.0 0.1617452062
C  C259  1  0.25650000  0.02880000  0.41320000  1.0 0.1617452062
C  C260  1  0.74350000  0.97120000  0.41320000  1.0 0.1617452062
C  C261  1  0.75650000  0.47120000  0.91320000  1.0 0.1617452062
C  C262  1  0.24350000  0.52880000  0.91320000  1.0 0.1617452062
C  C263  1  0.74350000  0.97120000  0.58680000  1.0 0.1617452062
C  C264  1  0.25650000  0.02880000  0.58680000  1.0 0.1617452062
C  C265  1  0.24510000  0.51640000  0.12700000  1.0 -0.1988904572
C  C266  1  0.75490000  0.48360000  0.12700000  1.0 -0.1988904572
C  C267  1  0.25490000  0.01640000  0.37300000  1.0 -0.1988904572
C  C268  1  0.74510000  0.98360000  0.37300000  1.0 -0.1988904572
C  C269  1  0.75490000  0.48360000  0.87300000  1.0 -0.1988904572
C  C270  1  0.24510000  0.51640000  0.87300000  1.0 -0.1988904572
C  C271  1  0.74510000  0.98360000  0.62700000  1.0 -0.1988904572
C  C272  1  0.25490000  0.01640000  0.62700000  1.0 -0.1988904572
C  C273  1  0.25430000  0.47630000  0.12880000  1.0 -0.1701309115
C  C274  1  0.74570000  0.52370000  0.12880000  1.0 -0.1701309115
C  C275  1  0.24570000  0.97630000  0.37120000  1.0 -0.1701309115
C  C276  1  0.75430000  0.02370000  0.37120000  1.0 -0.1701309115
C  C277  1  0.74570000  0.52370000  0.87120000  1.0 -0.1701309115
C  C278  1  0.25430000  0.47630000  0.87120000  1.0 -0.1701309115
C  C279  1  0.75430000  0.02370000  0.62880000  1.0 -0.1701309115
C  C280  1  0.24570000  0.97630000  0.62880000  1.0 -0.1701309115
C  C281  1  0.25000000  0.46420000  0.08360000  1.0 0.2296615334
C  C282  1  0.75000000  0.53580000  0.08360000  1.0 0.2247190333
C  C283  1  0.25000000  0.96420000  0.41640000  1.0 0.2296615334
C  C284  1  0.75000000  0.03580000  0.41640000  1.0 0.2296615334
C  C285  1  0.75000000  0.53580000  0.91640000  1.0 0.2247190333
C  C286  1  0.25000000  0.46420000  0.91640000  1.0 0.2296615334
C  C287  1  0.75000000  0.03580000  0.58360000  1.0 0.2296615334
C  C288  1  0.25000000  0.96420000  0.58360000  1.0 0.2296615334
C  C289  1  0.25080000  0.42350000  0.07380000  1.0 -0.0998509711
C  C290  1  0.74920000  0.57650000  0.07380000  1.0 -0.0998509711
C  C291  1  0.24920000  0.92350000  0.42620000  1.0 -0.0998509711
C  C292  1  0.75080000  0.07650000  0.42620000  1.0 -0.0998509711
C  C293  1  0.74920000  0.57650000  0.92620000  1.0 -0.0998509711
C  C294  1  0.25080000  0.42350000  0.92620000  1.0 -0.0998509711
C  C295  1  0.75080000  0.07650000  0.57380000  1.0 -0.0998509711
C  C296  1  0.24920000  0.92350000  0.57380000  1.0 -0.0998509711
C  C297  1  0.24940000  0.39120000  0.10590000  1.0 0.0905371042
C  C298  1  0.75060000  0.60880000  0.10590000  1.0 0.0905371042
C  C299  1  0.25060000  0.89120000  0.39410000  1.0 0.0905371042
C  C300  1  0.74940000  0.10880000  0.39410000  1.0 0.0905371042
C  C301  1  0.75060000  0.60880000  0.89410000  1.0 0.0905371042
C  C302  1  0.24940000  0.39120000  0.89410000  1.0 0.0905371042
C  C303  1  0.74940000  0.10880000  0.60590000  1.0 0.0905371042
C  C304  1  0.25060000  0.89120000  0.60590000  1.0 0.0905371042
C  C305  1  0.31610000  0.38010000  0.12650000  1.0 -0.1562434856
C  C306  1  0.68390000  0.61990000  0.12650000  1.0 -0.1562434856
C  C307  1  0.18390000  0.88010000  0.37350000  1.0 -0.1562434856
C  C308  1  0.81610000  0.11990000  0.37350000  1.0 -0.1562434856
C  C309  1  0.68390000  0.61990000  0.87350000  1.0 -0.1562434856
C  C310  1  0.31610000  0.38010000  0.87350000  1.0 -0.1562434856
C  C311  1  0.81610000  0.11990000  0.62650000  1.0 -0.1562434856
C  C312  1  0.18390000  0.88010000  0.62650000  1.0 -0.1562434856
C  C313  1  0.31290000  0.35040000  0.15600000  1.0 -0.1207214568
C  C314  1  0.68710000  0.64960000  0.15600000  1.0 -0.1207214568
C  C315  1  0.18710000  0.85040000  0.34400000  1.0 -0.1207214568
C  C316  1  0.81290000  0.14960000  0.34400000  1.0 -0.1090430599
C  C317  1  0.68710000  0.64960000  0.84400000  1.0 -0.1207214568
C  C318  1  0.31290000  0.35040000  0.84400000  1.0 -0.1207214568
C  C319  1  0.81290000  0.14960000  0.65600000  1.0 -0.1090430599
C  C320  1  0.18710000  0.85040000  0.65600000  1.0 -0.1207214568
C  C321  1  0.24300000  0.33180000  0.16480000  1.0 -0.0286780528
C  C322  1  0.75700000  0.66820000  0.16480000  1.0 -0.0286780528
C  C323  1  0.25700000  0.83180000  0.33520000  1.0 -0.0286780528
C  C324  1  0.74300000  0.16820000  0.33520000  1.0 -0.0286780528
C  C325  1  0.75700000  0.66820000  0.83520000  1.0 -0.0286780528
C  C326  1  0.24300000  0.33180000  0.83520000  1.0 -0.0286780528
C  C327  1  0.74300000  0.16820000  0.66480000  1.0 -0.0286780528
C  C328  1  0.25700000  0.83180000  0.66480000  1.0 -0.0286780528
C  C329  1  0.17630000  0.34280000  0.14420000  1.0 -0.0998509711
C  C330  1  0.82370000  0.65720000  0.14420000  1.0 -0.0998509711
C  C331  1  0.32370000  0.84280000  0.35580000  1.0 -0.0998509711
C  C332  1  0.67630000  0.15720000  0.35580000  1.0 -0.0998509711
C  C333  1  0.82370000  0.65720000  0.85580000  1.0 -0.0998509711
C  C334  1  0.17630000  0.34280000  0.85580000  1.0 -0.0998509711
C  C335  1  0.67630000  0.15720000  0.64420000  1.0 -0.0998509711
C  C336  1  0.32370000  0.84280000  0.64420000  1.0 -0.0998509711
C  C337  1  0.17950000  0.37250000  0.11480000  1.0 -0.1562434856
C  C338  1  0.82050000  0.62750000  0.11480000  1.0 -0.1562434856
C  C339  1  0.32050000  0.87250000  0.38520000  1.0 -0.1562434856
C  C340  1  0.67950000  0.12750000  0.38520000  1.0 -0.1562434856
C  C341  1  0.82050000  0.62750000  0.88520000  1.0 -0.1562434856
C  C342  1  0.17950000  0.37250000  0.88520000  1.0 -0.1562434856
C  C343  1  0.67950000  0.12750000  0.61480000  1.0 -0.1562434856
C  C344  1  0.32050000  0.87250000  0.61480000  1.0 -0.1562434856
C  C345  1  0.25510000  0.30100000  0.19630000  1.0 0.5747599906
C  C346  1  0.74490000  0.69900000  0.19630000  1.0 0.5747599906
C  C347  1  0.24490000  0.80100000  0.30370000  1.0 0.5747599906
C  C348  1  0.75510000  0.19900000  0.30370000  1.0 0.5747599906
C  C349  1  0.74490000  0.69900000  0.80370000  1.0 0.5747599906
C  C350  1  0.25510000  0.30100000  0.80370000  1.0 0.5747599906
C  C351  1  0.75510000  0.19900000  0.69630000  1.0 0.5747599906
C  C352  1  0.24490000  0.80100000  0.69630000  1.0 0.5747599906
C  C353  1  0.24710000  0.41010000  0.03280000  1.0 0.1853527036
C  C354  1  0.75290000  0.58990000  0.03280000  1.0 0.1836715049
C  C355  1  0.25290000  0.91010000  0.46720000  1.0 0.1853527036
C  C356  1  0.74710000  0.08990000  0.46720000  1.0 0.1853527036
C  C357  1  0.75290000  0.58990000  0.96720000  1.0 0.1836715049
C  C358  1  0.24710000  0.41010000  0.96720000  1.0 0.1853527036
C  C359  1  0.74710000  0.08990000  0.53280000  1.0 0.1853527036
C  C360  1  0.25290000  0.91010000  0.53280000  1.0 0.1853527036
C  C361  1  0.24420000  0.36740000  0.02140000  1.0 -0.1923529462
C  C362  1  0.75580000  0.63260000  0.02140000  1.0 -0.1923529462
C  C363  1  0.25580000  0.86740000  0.47860000  1.0 -0.1923529462
C  C364  1  0.74420000  0.13260000  0.47860000  1.0 -0.1923529462
C  C365  1  0.75580000  0.63260000  0.97860000  1.0 -0.1923529462
C  C366  1  0.24420000  0.36740000  0.97860000  1.0 -0.1923529462
C  C367  1  0.74420000  0.13260000  0.52140000  1.0 -0.1923529462
C  C368  1  0.25580000  0.86740000  0.52140000  1.0 -0.1923529462
C  C369  1  0.25590000  0.58360000  0.03300000  1.0 0.1713855999
C  C370  1  0.74410000  0.41640000  0.03300000  1.0 0.1713855999
C  C371  1  0.24410000  0.08360000  0.46700000  1.0 0.1713855999
C  C372  1  0.75590000  0.91640000  0.46700000  1.0 0.1713855999
C  C373  1  0.74410000  0.41640000  0.96700000  1.0 0.1713855999
C  C374  1  0.25590000  0.58360000  0.96700000  1.0 0.1713855999
C  C375  1  0.75590000  0.91640000  0.53300000  1.0 0.1713855999
C  C376  1  0.24410000  0.08360000  0.53300000  1.0 0.1713855999
C  C377  1  0.24870000  0.62280000  0.02090000  1.0 -0.226015256
C  C378  1  0.75130000  0.37720000  0.02090000  1.0 -0.226015256
C  C379  1  0.25130000  0.12280000  0.47910000  1.0 -0.226015256
C  C380  1  0.74870000  0.87720000  0.47910000  1.0 -0.226015256
C  C381  1  0.75130000  0.37720000  0.97910000  1.0 -0.226015256
C  C382  1  0.24870000  0.62280000  0.97910000  1.0 -0.226015256
C  C383  1  0.74870000  0.87720000  0.52090000  1.0 -0.226015256
C  C384  1  0.25130000  0.12280000  0.52090000  1.0 -0.226015256
C  C385  1  0.53420000  0.25130000  0.32060000  0.5 0.0131621659
C  C386  1  0.46580000  0.74870000  0.32060000  0.5 0.0131621659
C  C387  1  0.96580000  0.75130000  0.17940000  0.5 0.0159970743
C  C388  1  0.03420000  0.24870000  0.17940000  0.5 0.0159970743
C  C389  1  0.46580000  0.74870000  0.67940000  0.5 0.0131621659
C  C390  1  0.53420000  0.25130000  0.67940000  0.5 0.0131621659
C  C391  1  0.03420000  0.24870000  0.82060000  0.5 0.0131621659
C  C392  1  0.96580000  0.75130000  0.82060000  0.5 0.0131621659
C  C393  1  0.57440000  0.25520000  0.35660000  0.5 -0.1090430599
C  C394  1  0.42560000  0.74480000  0.35660000  0.5 -0.1090430599
C  C395  1  0.92560000  0.75520000  0.14340000  0.5 -0.1090430599
C  C396  1  0.07440000  0.24480000  0.14340000  0.5 -0.1090430599
C  C397  1  0.42560000  0.74480000  0.64340000  0.5 -0.1090430599
C  C398  1  0.57440000  0.25520000  0.64340000  0.5 -0.1090430599
C  C399  1  0.07440000  0.24480000  0.85660000  0.5 -0.1090430599
C  C400  1  0.92560000  0.75520000  0.85660000  0.5 -0.1090430599
C  C401  1  0.53320000  0.25660000  0.39190000  0.5 -0.0901772044
C  C402  1  0.46680000  0.74340000  0.39190000  0.5 -0.0901772044
C  C403  1  0.96680000  0.75660000  0.10810000  0.5 -0.0901772044
C  C404  1  0.03320000  0.24340000  0.10810000  0.5 -0.0901772044
C  C405  1  0.46680000  0.74340000  0.60810000  0.5 -0.0901772044
C  C406  1  0.53320000  0.25660000  0.60810000  0.5 -0.0901772044
C  C407  1  0.03320000  0.24340000  0.89190000  0.5 -0.0901772044
C  C408  1  0.96680000  0.75660000  0.89190000  0.5 -0.0901772044
C  C409  1  0.45470000  0.25060000  0.39190000  0.5 -0.0998509711
C  C410  1  0.54530000  0.74940000  0.39190000  0.5 -0.0998509711
C  C411  1  0.04530000  0.75060000  0.10810000  0.5 -0.0998509711
C  C412  1  0.95470000  0.24940000  0.10810000  0.5 -0.0998509711
C  C413  1  0.54530000  0.74940000  0.60810000  0.5 -0.0998509711
C  C414  1  0.45470000  0.25060000  0.60810000  0.5 -0.0998509711
C  C415  1  0.95470000  0.24940000  0.89190000  0.5 -0.0998509711
C  C416  1  0.04530000  0.75060000  0.89190000  0.5 -0.0998509711
C  C417  1  0.41460000  0.25210000  0.35650000  0.5 -0.1207214568
C  C418  1  0.58540000  0.74790000  0.35650000  0.5 -0.1207214568
C  C419  1  0.08540000  0.75210000  0.14350000  0.5 -0.1207214568
C  C420  1  0.91460000  0.24790000  0.14350000  0.5 -0.1207214568
C  C421  1  0.58540000  0.74790000  0.64350000  0.5 -0.1207214568
C  C422  1  0.41460000  0.25210000  0.64350000  0.5 -0.1207214568
C  C423  1  0.91460000  0.24790000  0.85650000  0.5 -0.1207214568
C  C424  1  0.08540000  0.75210000  0.85650000  0.5 -0.1207214568
C  C425  1  0.45480000  0.24950000  0.32080000  0.5 -0.0198324805
C  C426  1  0.54520000  0.75050000  0.32080000  0.5 -0.0198324805
C  C427  1  0.04520000  0.74950000  0.17920000  0.5 -0.0198324805
C  C428  1  0.95480000  0.25050000  0.17920000  0.5 -0.0198324805
C  C429  1  0.54520000  0.75050000  0.67920000  0.5 -0.0198324805
C  C430  1  0.45480000  0.24950000  0.67920000  0.5 -0.0198324805
C  C431  1  0.95480000  0.25050000  0.82080000  0.5 -0.0198324805
C  C432  1  0.04520000  0.74950000  0.82080000  0.5 -0.0198324805
C  C433  1  0.45230000  0.32060000  0.25120000  0.5 0.0159970743
C  C434  1  0.54770000  0.67940000  0.25120000  0.5 0.0159970743
C  C435  1  0.04770000  0.82060000  0.24880000  0.5 0.0159970743
C  C436  1  0.95230000  0.17940000  0.24880000  0.5 0.0159970743
C  C437  1  0.54770000  0.67940000  0.74880000  0.5 0.0159970743
C  C438  1  0.45230000  0.32060000  0.74880000  0.5 0.0159970743
C  C439  1  0.95230000  0.17940000  0.75120000  0.5 0.0159970743
C  C440  1  0.04770000  0.82060000  0.75120000  0.5 0.0159970743
C  C441  1  0.40950000  0.35430000  0.25480000  0.5 -0.1090430599
C  C442  1  0.59050000  0.64570000  0.25480000  0.5 -0.1090430599
C  C443  1  0.09050000  0.85430000  0.24520000  0.5 -0.1090430599
C  C444  1  0.90950000  0.14570000  0.24520000  0.5 -0.1090430599
C  C445  1  0.59050000  0.64570000  0.74520000  0.5 -0.1090430599
C  C446  1  0.40950000  0.35430000  0.74520000  0.5 -0.1090430599
C  C447  1  0.90950000  0.14570000  0.75480000  0.5 -0.1090430599
C  C448  1  0.09050000  0.85430000  0.75480000  0.5 -0.1090430599
C  C449  1  0.44520000  0.38960000  0.25650000  0.5 -0.0998509711
C  C450  1  0.55480000  0.61040000  0.25650000  0.5 -0.0998509711
C  C451  1  0.05480000  0.88960000  0.24350000  0.5 -0.0998509711
C  C452  1  0.94520000  0.11040000  0.24350000  0.5 -0.0998509711
C  C453  1  0.55480000  0.61040000  0.74350000  0.5 -0.0998509711
C  C454  1  0.44520000  0.38960000  0.74350000  0.5 -0.0998509711
C  C455  1  0.94520000  0.11040000  0.75650000  0.5 -0.0998509711
C  C456  1  0.05480000  0.88960000  0.75650000  0.5 -0.0998509711
C  C457  1  0.52290000  0.39200000  0.25420000  0.5 -0.1090430599
C  C458  1  0.47710000  0.60800000  0.25420000  0.5 -0.1090430599
C  C459  1  0.97710000  0.89200000  0.24580000  0.5 -0.0998509711
C  C460  1  0.02290000  0.10800000  0.24580000  0.5 -0.1090430599
C  C461  1  0.47710000  0.60800000  0.74580000  0.5 -0.1090430599
C  C462  1  0.52290000  0.39200000  0.74580000  0.5 -0.1090430599
C  C463  1  0.02290000  0.10800000  0.75420000  0.5 -0.1090430599
C  C464  1  0.97710000  0.89200000  0.75420000  0.5 -0.1090430599
C  C465  1  0.56660000  0.35860000  0.25220000  0.5 -0.1415623997
C  C466  1  0.43340000  0.64140000  0.25220000  0.5 -0.1415623997
C  C467  1  0.93340000  0.85860000  0.24780000  0.5 -0.1415623997
C  C468  1  0.06660000  0.14140000  0.24780000  0.5 -0.1415623997
C  C469  1  0.43340000  0.64140000  0.74780000  0.5 -0.1415623997
C  C470  1  0.56660000  0.35860000  0.74780000  0.5 -0.1415623997
C  C471  1  0.06660000  0.14140000  0.75220000  0.5 -0.1415623997
C  C472  1  0.93340000  0.85860000  0.75220000  0.5 -0.1415623997
C  C473  1  0.53010000  0.32270000  0.25180000  0.5 0.0293495366
C  C474  1  0.46990000  0.67730000  0.25180000  0.5 0.0293495366
C  C475  1  0.96990000  0.82270000  0.24820000  0.5 0.0293495366
C  C476  1  0.03010000  0.17730000  0.24820000  0.5 0.0293495366
C  C477  1  0.46990000  0.67730000  0.74820000  0.5 0.0293495366
C  C478  1  0.53010000  0.32270000  0.74820000  0.5 0.0293495366
C  C479  1  0.03010000  0.17730000  0.75180000  0.5 0.0293495366
C  C480  1  0.96990000  0.82270000  0.75180000  0.5 0.0293495366
N  N1  1  0.20100000  0.43510000  0.50000000  1.0 -0.3613309183
N  N2  1  0.79900000  0.56490000  0.50000000  1.0 -0.3613309183
N  N3  1  0.29900000  0.93510000  0.00000000  1.0 -0.3613309183
N  N4  1  0.70100000  0.06490000  0.00000000  1.0 -0.3613309183
N  N5  1  0.20520000  0.49599000  0.43790000  1.0 -0.3406675973
N  N6  1  0.79480000  0.50401000  0.43790000  1.0 -0.3406675973
N  N7  1  0.29480000  0.99599000  0.06210000  1.0 -0.3406675973
N  N8  1  0.70520000  0.00401000  0.06210000  1.0 -0.3406675973
N  N9  1  0.79480000  0.50401000  0.56210000  1.0 -0.3406675973
N  N10  1  0.20520000  0.49599000  0.56210000  1.0 -0.3406675973
N  N11  1  0.70520000  0.00401000  0.93790000  1.0 -0.3406675973
N  N12  1  0.29480000  0.99599000  0.93790000  1.0 -0.3406675973
N  N13  1  0.20720000  0.55940000  0.50000000  1.0 -0.3406675973
N  N14  1  0.79280000  0.44060000  0.50000000  1.0 -0.3406675973
N  N15  1  0.29280000  0.05940000  0.00000000  1.0 -0.3406675973
N  N16  1  0.70720000  0.94060000  0.00000000  1.0 -0.3406675973
N  N17  1  0.24460000  0.43750000  0.00000000  1.0 -0.3984868086
N  N18  1  0.75540000  0.56250000  0.00000000  1.0 -0.393779754
N  N19  1  0.25540000  0.93750000  0.50000000  1.0 -0.3984868086
N  N20  1  0.74460000  0.06250000  0.50000000  1.0 -0.3984868086
N  N21  1  0.24900000  0.49630000  0.06110000  1.0 -0.3156544112
N  N22  1  0.75100000  0.50370000  0.06110000  1.0 -0.3118492452
N  N23  1  0.25100000  0.99630000  0.43890000  1.0 -0.3156544112
N  N24  1  0.74900000  0.00370000  0.43890000  1.0 -0.3156544112
N  N25  1  0.75100000  0.50370000  0.93890000  1.0 -0.3156544112
N  N26  1  0.24900000  0.49630000  0.93890000  1.0 -0.3156544112
N  N27  1  0.74900000  0.00370000  0.56110000  1.0 -0.3156544112
N  N28  1  0.25100000  0.99630000  0.56110000  1.0 -0.3156544112
N  N29  1  0.24750000  0.55970000  0.00000000  1.0 -0.3406675973
N  N30  1  0.75250000  0.44030000  0.00000000  1.0 -0.3406675973
N  N31  1  0.25250000  0.05970000  0.50000000  1.0 -0.3406675973
N  N32  1  0.74750000  0.94030000  0.50000000  1.0 -0.3406675973
N  N33  1  0.42540000  0.27590000  0.25050000  0.5 0.0381784539
N  N34  1  0.57460000  0.72410000  0.25050000  0.5 0.0381784539
N  N35  1  0.07460000  0.77590000  0.24950000  0.5 0.0381784539
N  N36  1  0.92540000  0.22410000  0.24950000  0.5 0.0381784539
N  N37  1  0.57460000  0.72410000  0.74950000  0.5 0.0381784539
N  N38  1  0.42540000  0.27590000  0.74950000  0.5 0.0381784539
N  N39  1  0.92540000  0.22410000  0.75050000  0.5 0.0381784539
N  N40  1  0.07460000  0.77590000  0.75050000  0.5 0.0381784539
N  N41  1  0.48940000  0.25640000  0.25170000  0.5 -0.0828607821
N  N42  1  0.51060000  0.74360000  0.25170000  0.5 -0.0828607821
N  N43  1  0.01060000  0.75640000  0.24830000  0.5 -0.0828607821
N  N44  1  0.98940000  0.24360000  0.24830000  0.5 -0.0828607821
N  N45  1  0.51060000  0.74360000  0.74830000  0.5 -0.0828607821
N  N46  1  0.48940000  0.25640000  0.74830000  0.5 -0.0828607821
N  N47  1  0.98940000  0.24360000  0.75170000  0.5 -0.0828607821
N  N48  1  0.01060000  0.75640000  0.75170000  0.5 -0.0828607821
N  N49  1  0.54870000  0.28060000  0.25160000  0.5 -0.0485411256
N  N50  1  0.45130000  0.71940000  0.25160000  0.5 -0.0485411256
N  N51  1  0.95130000  0.78060000  0.24840000  0.5 -0.0573745287
N  N52  1  0.04870000  0.21940000  0.24840000  0.5 -0.0485411256
N  N53  1  0.45130000  0.71940000  0.74840000  0.5 -0.0485411256
N  N54  1  0.54870000  0.28060000  0.74840000  0.5 -0.0485411256
N  N55  1  0.04870000  0.21940000  0.75160000  0.5 -0.0485411256
N  N56  1  0.95130000  0.78060000  0.75160000  0.5 -0.0573745287
N  N57  1  0.48650000  0.25120000  0.25690000  0.5 -0.0901772044
N  N58  1  0.51350000  0.74880000  0.25690000  0.5 -0.0901772044
N  N59  1  0.01350000  0.75120000  0.24310000  0.5 -0.0901772044
N  N60  1  0.98650000  0.24880000  0.24310000  0.5 -0.0901772044
N  N61  1  0.51350000  0.74880000  0.74310000  0.5 -0.0901772044
N  N62  1  0.48650000  0.25120000  0.74310000  0.5 -0.0901772044
N  N63  1  0.98650000  0.24880000  0.75690000  0.5 -0.0901772044
N  N64  1  0.01350000  0.75120000  0.75690000  0.5 -0.0901772044
N  N65  1  0.42670000  0.25230000  0.27710000  0.5 0.0131621659
N  N66  1  0.57330000  0.74770000  0.27710000  0.5 0.0131621659
N  N67  1  0.07330000  0.75230000  0.22290000  0.5 0.0159970743
N  N68  1  0.92670000  0.24770000  0.22290000  0.5 0.0131621659
N  N69  1  0.57330000  0.74770000  0.72290000  0.5 0.0131621659
N  N70  1  0.42670000  0.25230000  0.72290000  0.5 0.0131621659
N  N71  1  0.92670000  0.24770000  0.77710000  0.5 0.0131621659
N  N72  1  0.07330000  0.75230000  0.77710000  0.5 0.0159970743
N  N73  1  0.54630000  0.25080000  0.27800000  0.5 0.0017718096
N  N74  1  0.45370000  0.74920000  0.27800000  0.5 0.0017718096
N  N75  1  0.95370000  0.75080000  0.22200000  0.5 -0.0013899705
N  N76  1  0.04630000  0.24920000  0.22200000  0.5 0.0017718096
N  N77  1  0.45370000  0.74920000  0.72200000  0.5 0.0017718096
N  N78  1  0.54630000  0.25080000  0.72200000  0.5 0.0017718096
N  N79  1  0.04630000  0.24920000  0.77800000  0.5 0.0131621659
N  N80  1  0.95370000  0.75080000  0.77800000  0.5 0.0017718096
O  O1  1  0.28780000  0.29073000  0.29150000  1.0 -0.627663254
O  O2  1  0.71220000  0.70927000  0.29150000  1.0 -0.627663254
O  O3  1  0.21220000  0.79073000  0.20850000  1.0 -0.627663254
O  O4  1  0.78780000  0.20927000  0.20850000  1.0 -0.627663254
O  O5  1  0.71220000  0.70927000  0.70850000  1.0 -0.627663254
O  O6  1  0.28780000  0.29073000  0.70850000  1.0 -0.627663254
O  O7  1  0.78780000  0.20927000  0.79150000  1.0 -0.627663254
O  O8  1  0.21220000  0.79073000  0.79150000  1.0 -0.627663254
O  O9  1  0.15150000  0.28792000  0.28664000  1.0 -0.5507976369
O  O10  1  0.84850000  0.71208000  0.28664000  1.0 -0.5507976369
O  O11  1  0.34850000  0.78792000  0.21336000  1.0 -0.5507976369
O  O12  1  0.65150000  0.21208000  0.21336000  1.0 -0.5507976369
O  O13  1  0.84850000  0.71208000  0.71336000  1.0 -0.5507976369
O  O14  1  0.15150000  0.28792000  0.71336000  1.0 -0.5507976369
O  O15  1  0.65150000  0.21208000  0.78664000  1.0 -0.5507976369
O  O16  1  0.34850000  0.78792000  0.78664000  1.0 -0.5507976369
O  O17  1  0.17740000  0.70750000  0.29255000  1.0 -0.3118492452
O  O18  1  0.82260000  0.29250000  0.29255000  1.0 -0.3118492452
O  O19  1  0.32260000  0.20750000  0.20745000  1.0 -0.3118492452
O  O20  1  0.67740000  0.79250000  0.20745000  1.0 -0.3118492452
O  O21  1  0.82260000  0.29250000  0.70745000  1.0 -0.3118492452
O  O22  1  0.17740000  0.70750000  0.70745000  1.0 -0.3118492452
O  O23  1  0.67740000  0.79250000  0.79255000  1.0 -0.3118492452
O  O24  1  0.32260000  0.20750000  0.79255000  1.0 -0.3118492452
O  O25  1  0.28790000  0.70290000  0.29640000  1.0 -0.3406675973
O  O26  1  0.71210000  0.29710000  0.29640000  1.0 -0.3406675973
O  O27  1  0.21210000  0.20290000  0.20360000  1.0 -0.3406675973
O  O28  1  0.78790000  0.79710000  0.20360000  1.0 -0.3406675973
O  O29  1  0.71210000  0.29710000  0.70360000  1.0 -0.3406675973
O  O30  1  0.28790000  0.70290000  0.70360000  1.0 -0.3406675973
O  O31  1  0.78790000  0.79710000  0.79640000  1.0 -0.3406675973
O  O32  1  0.21210000  0.20290000  0.79640000  1.0 -0.3406675973
O  O33  1  0.19650000  0.70900000  0.20300000  1.0 -0.3118492452
O  O34  1  0.80350000  0.29100000  0.20300000  1.0 -0.3118492452
O  O35  1  0.30350000  0.20900000  0.29700000  1.0 -0.3118492452
O  O36  1  0.69650000  0.79100000  0.29700000  1.0 -0.3156544112
O  O37  1  0.80350000  0.29100000  0.79700000  1.0 -0.3118492452
O  O38  1  0.19650000  0.70900000  0.79700000  1.0 -0.3118492452
O  O39  1  0.69650000  0.79100000  0.70300000  1.0 -0.3118492452
O  O40  1  0.30350000  0.20900000  0.70300000  1.0 -0.3118492452
O  O41  1  0.30680000  0.70210000  0.20759000  1.0 -0.3984868086
O  O42  1  0.69320000  0.29790000  0.20759000  1.0 -0.3984868086
O  O43  1  0.19320000  0.20210000  0.29241000  1.0 -0.3984868086
O  O44  1  0.80680000  0.79790000  0.29241000  1.0 -0.3984868086
O  O45  1  0.69320000  0.29790000  0.79241000  1.0 -0.3984868086
O  O46  1  0.30680000  0.70210000  0.79241000  1.0 -0.3984868086
O  O47  1  0.80680000  0.79790000  0.70759000  1.0 -0.3984868086
O  O48  1  0.19320000  0.20210000  0.70759000  1.0 -0.3984868086
O  O49  1  0.32180000  0.29010000  0.21450000  1.0 -0.5507976369
O  O50  1  0.67820000  0.70990000  0.21450000  1.0 -0.5507976369
O  O51  1  0.17820000  0.79010000  0.28550000  1.0 -0.5507976369
O  O52  1  0.82180000  0.20990000  0.28550000  1.0 -0.5507976369
O  O53  1  0.67820000  0.70990000  0.78550000  1.0 -0.5507976369
O  O54  1  0.32180000  0.29010000  0.78550000  1.0 -0.5507976369
O  O55  1  0.82180000  0.20990000  0.71450000  1.0 -0.5507976369
O  O56  1  0.17820000  0.79010000  0.71450000  1.0 -0.5507976369
O  O57  1  0.18010000  0.28790000  0.20800000  1.0 -0.6424930983
O  O58  1  0.81990000  0.71210000  0.20800000  1.0 -0.6424930983
O  O59  1  0.31990000  0.78790000  0.29200000  1.0 -0.6424930983
O  O60  1  0.68010000  0.21210000  0.29200000  1.0 -0.6424930983
O  O61  1  0.81990000  0.71210000  0.79200000  1.0 -0.6424930983
O  O62  1  0.18010000  0.28790000  0.79200000  1.0 -0.6424930983
O  O63  1  0.68010000  0.21210000  0.70800000  1.0 -0.6424930983
O  O64  1  0.31990000  0.78790000  0.70800000  1.0 -0.6424930983
