# DDEC6 charges by PACMAN v1.1 (https://github.com/mtap-research/PACMAN-charge/)
data_ja8b07290_si_005_ion_pacman
_symmetry_space_group_name_H-M   'P 1'
_cell_length_a   10.29850000
_cell_length_b   22.92980000
_cell_length_c   25.50720000
_cell_angle_alpha   90.00000000
_cell_angle_beta   90.00000000
_cell_angle_gamma   90.00000000
_symmetry_Int_Tables_number   1
_chemical_formula_structural   Zn2H35C47SN6Cl2(O3F)3
_chemical_formula_sum   'Zn8 H140 C188 S4 N24 Cl8 O36 F12'
_cell_volume   6023.33513148
_cell_formula_units_Z   4
loop_
 _symmetry_equiv_pos_site_id
 _symmetry_equiv_pos_as_xyz
  1  'x, y, z'
loop_
 _atom_site_type_symbol
 _atom_site_label
 _atom_site_symmetry_multiplicity
 _atom_site_fract_x
 _atom_site_fract_y
 _atom_site_fract_z
 _atom_site_occupancy
 _atom_site_charge
Zn  Zn1  1  0.81353000  0.75368000  0.45953000  1.0 0.7279403694
Zn  Zn2  1  0.79781000  0.25378000  0.45583000  1.0 0.7512482889
Zn  Zn3  1  0.68647000  0.24632000  0.95953000  1.0 0.7279403694
Zn  Zn4  1  0.70219000  0.74622000  0.95583000  1.0 0.7512482889
Zn  Zn5  1  0.18647000  0.25368000  0.04047000  1.0 0.7279403694
Zn  Zn6  1  0.20219000  0.75378000  0.04417000  1.0 0.7512482889
Zn  Zn7  1  0.31353000  0.74632000  0.54047000  1.0 0.7279403694
Zn  Zn8  1  0.29781000  0.24622000  0.54417000  1.0 0.7512482889
H  H1  1  0.70400000  0.21800000  0.54200000  1.0 0.336951036
H  H2  1  0.76000000  0.71610000  0.55000000  1.0 0.3307326548
H  H3  1  0.61640000  0.95969000  0.46986000  1.0 0.1294578789
H  H4  1  0.60453000  0.36019000  0.43438000  1.0 0.1101990456
H  H5  1  0.96285000  0.35800000  0.48775000  1.0 0.1101990456
H  H6  1  0.99379000  0.95710000  0.42503000  1.0 0.1294578789
H  H7  1  0.14786000  0.73639000  0.31360000  1.0 0.148885686
H  H8  1  0.99167000  0.04768000  0.46832000  1.0 0.1172938277
H  H9  1  0.62201000  0.85884000  0.47650000  1.0 0.1005262321
H  H10  1  0.98812000  0.64544000  0.43676000  1.0 0.1005262321
H  H11  1  0.62830000  0.65155000  0.48718000  1.0 0.0898782704
H  H12  1  0.62044000  0.04691000  0.41636000  1.0 0.1294578789
H  H13  1  0.98915000  0.85602000  0.43225000  1.0 0.1005262321
H  H14  1  0.60909000  0.55089000  0.48205000  1.0 0.1294578789
H  H15  1  0.71578000  0.77318000  0.34798000  1.0 0.1005262321
H  H16  1  0.98337000  0.54465000  0.43441000  1.0 0.1385062822
H  H17  1  0.62631000  0.14744000  0.41765000  1.0 0.1005262321
H  H18  1  0.78735000  0.77755000  0.26123000  1.0 0.1172938277
H  H19  1  0.72015000  0.84744000  0.57569000  1.0 0.1005262321
H  H20  1  0.90292000  0.73460000  0.60642000  1.0 0.0898782704
H  H21  1  0.60563000  0.46145000  0.43137000  1.0 0.1294578789
H  H22  1  0.98457000  0.14663000  0.46938000  1.0 0.1005262321
H  H23  1  0.97571000  0.45844000  0.48561000  1.0 0.1294578789
H  H24  1  0.08739000  0.82194000  0.62709000  1.0 0.1101990456
H  H25  1  0.28320000  0.79191000  0.15425000  1.0 0.1005262321
H  H26  1  0.20650000  0.79216000  0.23984000  1.0 0.1172938277
H  H27  1  0.86514000  0.72889000  0.18617000  1.0 0.1101990456
H  H28  1  0.94976000  0.73240000  0.10155000  1.0 0.1101990456
H  H29  1  0.72245000  0.94093000  0.61055000  1.0 0.1101990456
H  H30  1  0.91304000  0.97806000  0.64924000  1.0 0.1294578789
H  H31  1  0.79600000  0.78200000  0.04200000  1.0 0.336951036
H  H32  1  0.74000000  0.28390000  0.05000000  1.0 0.3307326548
H  H33  1  0.88360000  0.04031000  0.96986000  1.0 0.1294578789
H  H34  1  0.89547000  0.63981000  0.93438000  1.0 0.1101990456
H  H35  1  0.53715000  0.64200000  0.98775000  1.0 0.1101990456
H  H36  1  0.50621000  0.04290000  0.92503000  1.0 0.1294578789
H  H37  1  0.35214000  0.26361000  0.81360000  1.0 0.148885686
H  H38  1  0.50833000  0.95232000  0.96832000  1.0 0.1172938277
H  H39  1  0.87799000  0.14116000  0.97650000  1.0 0.1005262321
H  H40  1  0.51188000  0.35456000  0.93676000  1.0 0.1005262321
H  H41  1  0.87170000  0.34845000  0.98718000  1.0 0.0898782704
H  H42  1  0.87956000  0.95309000  0.91636000  1.0 0.1294578789
H  H43  1  0.51085000  0.14398000  0.93225000  1.0 0.1005262321
H  H44  1  0.89091000  0.44911000  0.98205000  1.0 0.1294578789
H  H45  1  0.78422000  0.22682000  0.84798000  1.0 0.1005262321
H  H46  1  0.51663000  0.45535000  0.93441000  1.0 0.1385062822
H  H47  1  0.87369000  0.85256000  0.91765000  1.0 0.1005262321
H  H48  1  0.71265000  0.22245000  0.76123000  1.0 0.1172938277
H  H49  1  0.77985000  0.15256000  0.07569000  1.0 0.1005262321
H  H50  1  0.59708000  0.26540000  0.10642000  1.0 0.0898782704
H  H51  1  0.89437000  0.53855000  0.93137000  1.0 0.1294578789
H  H52  1  0.51543000  0.85337000  0.96938000  1.0 0.1005262321
H  H53  1  0.52429000  0.54156000  0.98561000  1.0 0.1294578789
H  H54  1  0.41261000  0.17806000  0.12709000  1.0 0.1101990456
H  H55  1  0.21680000  0.20809000  0.65425000  1.0 0.1005262321
H  H56  1  0.29350000  0.20784000  0.73984000  1.0 0.1172938277
H  H57  1  0.63486000  0.27111000  0.68617000  1.0 0.1101990456
H  H58  1  0.55024000  0.26760000  0.60155000  1.0 0.1101990456
H  H59  1  0.77755000  0.05907000  0.11055000  1.0 0.1005262321
H  H60  1  0.58696000  0.02194000  0.14924000  1.0 0.1294578789
H  H61  1  0.29600000  0.71800000  0.95800000  1.0 0.336951036
H  H62  1  0.24000000  0.21610000  0.95000000  1.0 0.3307326548
H  H63  1  0.38360000  0.45969000  0.03014000  1.0 0.1294578789
H  H64  1  0.39547000  0.86019000  0.06562000  1.0 0.1101990456
H  H65  1  0.03715000  0.85800000  0.01225000  1.0 0.1101990456
H  H66  1  0.00621000  0.45710000  0.07497000  1.0 0.1294578789
H  H67  1  0.85214000  0.23639000  0.18640000  1.0 0.148885686
H  H68  1  0.00833000  0.54768000  0.03168000  1.0 0.1172938277
H  H69  1  0.37799000  0.35884000  0.02350000  1.0 0.1005262321
H  H70  1  0.01188000  0.14544000  0.06324000  1.0 0.1005262321
H  H71  1  0.37170000  0.15155000  0.01282000  1.0 0.0898782704
H  H72  1  0.37956000  0.54691000  0.08364000  1.0 0.1294578789
H  H73  1  0.01085000  0.35602000  0.06775000  1.0 0.1005262321
H  H74  1  0.39091000  0.05089000  0.01795000  1.0 0.1294578789
H  H75  1  0.28422000  0.27318000  0.15202000  1.0 0.1005262321
H  H76  1  0.01663000  0.04465000  0.06559000  1.0 0.1385062822
H  H77  1  0.37369000  0.64744000  0.08235000  1.0 0.1005262321
H  H78  1  0.21265000  0.27755000  0.23877000  1.0 0.1172938277
H  H79  1  0.27985000  0.34744000  0.92431000  1.0 0.1005262321
H  H80  1  0.09708000  0.23460000  0.89358000  1.0 0.0898782704
H  H81  1  0.39437000  0.96145000  0.06863000  1.0 0.1294578789
H  H82  1  0.01543000  0.64663000  0.03062000  1.0 0.1005262321
H  H83  1  0.02429000  0.95844000  0.01439000  1.0 0.1294578789
H  H84  1  0.91261000  0.32194000  0.87291000  1.0 0.1101990456
H  H85  1  0.71680000  0.29191000  0.34575000  1.0 0.1005262321
H  H86  1  0.79350000  0.29216000  0.26016000  1.0 0.1172938277
H  H87  1  0.13486000  0.22889000  0.31383000  1.0 0.1101990456
H  H88  1  0.05024000  0.23240000  0.39845000  1.0 0.1101990456
H  H89  1  0.27755000  0.44093000  0.88945000  1.0 0.1101990456
H  H90  1  0.08696000  0.47806000  0.85076000  1.0 0.1294578789
H  H91  1  0.20400000  0.28200000  0.45800000  1.0 0.336951036
H  H92  1  0.26000000  0.78390000  0.45000000  1.0 0.3307326548
H  H93  1  0.11640000  0.54031000  0.53014000  1.0 0.1294578789
H  H94  1  0.10453000  0.13981000  0.56562000  1.0 0.1101990456
H  H95  1  0.46285000  0.14200000  0.51225000  1.0 0.1101990456
H  H96  1  0.49379000  0.54290000  0.57497000  1.0 0.1294578789
H  H97  1  0.64786000  0.76361000  0.68640000  1.0 0.148885686
H  H98  1  0.49167000  0.45232000  0.53168000  1.0 0.1172938277
H  H99  1  0.12201000  0.64116000  0.52350000  1.0 0.1005262321
H  H100  1  0.48812000  0.85456000  0.56324000  1.0 0.1005262321
H  H101  1  0.12830000  0.84845000  0.51282000  1.0 0.0898782704
H  H102  1  0.12044000  0.45309000  0.58364000  1.0 0.1294578789
H  H103  1  0.48915000  0.64398000  0.56775000  1.0 0.1005262321
H  H104  1  0.10909000  0.94911000  0.51795000  1.0 0.1294578789
H  H105  1  0.21578000  0.72682000  0.65202000  1.0 0.1005262321
H  H106  1  0.48337000  0.95535000  0.56559000  1.0 0.1385062822
H  H107  1  0.12631000  0.35256000  0.58235000  1.0 0.1005262321
H  H108  1  0.28735000  0.72245000  0.73877000  1.0 0.1172938277
H  H109  1  0.22015000  0.65256000  0.42431000  1.0 0.1005262321
H  H110  1  0.40292000  0.76540000  0.39358000  1.0 0.0898782704
H  H111  1  0.10563000  0.03855000  0.56863000  1.0 0.1294578789
H  H112  1  0.48457000  0.35337000  0.53062000  1.0 0.1005262321
H  H113  1  0.47571000  0.04156000  0.51439000  1.0 0.1294578789
H  H114  1  0.58739000  0.67806000  0.37291000  1.0 0.1101990456
H  H115  1  0.78320000  0.70809000  0.84575000  1.0 0.1005262321
H  H116  1  0.70650000  0.70784000  0.76016000  1.0 0.1172938277
H  H117  1  0.36514000  0.77111000  0.81383000  1.0 0.1101990456
H  H118  1  0.44976000  0.76760000  0.89845000  1.0 0.1101990456
H  H119  1  0.22245000  0.55907000  0.38945000  1.0 0.1101990456
H  H120  1  0.41304000  0.52194000  0.35076000  1.0 0.1294578789
H  H121  1  0.87970000  0.19682000  0.58266000  0.2 0.1172938277
H  H122  1  0.80787000  0.35117000  0.59513000  0.2 0.1005262321
H  H123  1  0.82634000  0.40135000  0.67466000  0.2 0.0785944634
H  H124  1  0.90700000  0.35356000  0.74889000  0.2 0.0898782704
H  H125  1  0.95073000  0.20540000  0.66405000  0.2 0.0898782704
H  H126  1  0.62030000  0.80318000  0.08266000  0.2 0.1172938277
H  H127  1  0.69213000  0.64883000  0.09513000  0.2 0.1005262321
H  H128  1  0.67366000  0.59865000  0.17466000  0.2 0.0785944634
H  H129  1  0.59300000  0.64644000  0.24889000  0.2 0.0898782704
H  H130  1  0.54927000  0.79460000  0.16405000  0.2 0.0898782704
H  H131  1  0.12030000  0.69682000  0.91734000  0.2 0.1172938277
H  H132  1  0.19213000  0.85117000  0.90487000  0.2 0.1005262321
H  H133  1  0.17366000  0.90135000  0.82534000  0.2 0.0785944634
H  H134  1  0.09300000  0.85356000  0.75111000  0.2 0.0898782704
H  H135  1  0.04927000  0.70540000  0.83595000  0.2 0.0898782704
H  H136  1  0.37970000  0.30318000  0.41734000  0.2 0.1172938277
H  H137  1  0.30787000  0.14883000  0.40487000  0.2 0.1005262321
H  H138  1  0.32634000  0.09865000  0.32534000  0.2 0.0785944634
H  H139  1  0.40700000  0.14644000  0.25111000  0.2 0.0898782704
H  H140  1  0.45073000  0.29460000  0.33595000  0.2 0.0898782704
H  H141  1  0.87944000  0.19892000  0.58771000  0.8 0.1172938277
H  H142  1  0.76864000  0.34620000  0.57496000  0.8 0.0898782704
H  H143  1  0.77011000  0.41579000  0.64205000  0.8 0.1005262321
H  H144  1  0.87409000  0.39536000  0.72153000  0.8 0.070797959
H  H145  1  0.97513000  0.23574000  0.66681000  0.8 0.0898782704
H  H146  1  0.62056000  0.80108000  0.08771000  0.8 0.1101990456
H  H147  1  0.73136000  0.65380000  0.07496000  0.8 0.0898782704
H  H148  1  0.72989000  0.58421000  0.14205000  0.8 0.1005262321
H  H149  1  0.62591000  0.60464000  0.22153000  0.8 0.070797959
H  H150  1  0.52487000  0.76426000  0.16681000  0.8 0.0898782704
H  H151  1  0.12056000  0.69892000  0.91229000  0.8 0.1172938277
H  H152  1  0.23136000  0.84620000  0.92504000  0.8 0.0898782704
H  H153  1  0.22989000  0.91579000  0.85795000  0.8 0.1005262321
H  H154  1  0.12591000  0.89536000  0.77847000  0.8 0.070797959
H  H155  1  0.02487000  0.73574000  0.83319000  0.8 0.0898782704
H  H156  1  0.37944000  0.30108000  0.41229000  0.8 0.1172938277
H  H157  1  0.26864000  0.15380000  0.42504000  0.8 0.0898782704
H  H158  1  0.27011000  0.08421000  0.35795000  0.8 0.1005262321
H  H159  1  0.37409000  0.10464000  0.27847000  0.8 0.070797959
H  H160  1  0.47513000  0.26426000  0.33319000  0.8 0.0898782704
C  C1  1  0.69460000  0.93940000  0.46220000  1.0 -0.1830273296
C  C2  1  0.68090000  0.38040000  0.44460000  1.0 0.0605990664
C  C3  1  0.80440000  0.97020000  0.44720000  1.0 0.1101990456
C  C4  1  0.80520000  0.03460000  0.44440000  1.0 0.1101990456
C  C5  1  0.88960000  0.37920000  0.47560000  1.0 0.0605990664
C  C6  1  0.91640000  0.93800000  0.43580000  1.0 -0.2104952316
C  C7  1  0.01620000  0.75210000  0.54030000  1.0 0.5510500558
C  C8  1  0.05870000  0.74480000  0.31960000  1.0 -0.2104952316
C  C9  1  0.91360000  0.06700000  0.45880000  1.0 -0.1860323958
C  C10  1  0.69840000  0.87900000  0.46620000  1.0 0.070797959
C  C11  1  0.91050000  0.62600000  0.44660000  1.0 0.070797959
C  C12  1  0.79560000  0.53550000  0.45900000  1.0 0.1172938277
C  C13  1  0.70080000  0.62950000  0.47530000  1.0 0.0785944634
C  C14  1  0.69630000  0.06650000  0.42820000  1.0 -0.1860323958
C  C15  1  0.91280000  0.87740000  0.44050000  1.0 0.070797959
C  C16  1  0.68920000  0.56910000  0.47350000  1.0 -0.1982885909
C  C17  1  0.80470000  0.76590000  0.34060000  1.0 0.0785944634
C  C18  1  0.79040000  0.47100000  0.45850000  1.0 0.0898782704
C  C19  1  0.90820000  0.56560000  0.44500000  1.0 -0.1830273296
C  C20  1  0.97680000  0.75800000  0.27740000  1.0 0.1294578789
C  C21  1  0.70030000  0.12660000  0.42970000  1.0 0.0464792438
C  C22  1  0.84670000  0.76860000  0.28860000  1.0 -0.2104952316
C  C23  1  0.00950000  0.74400000  0.36960000  1.0 0.0201475595
C  C24  1  0.79590000  0.86120000  0.59290000  1.0 -0.1430116109
C  C25  1  0.89920000  0.76260000  0.57640000  1.0 -0.007015773
C  C26  1  0.68040000  0.44090000  0.44300000  1.0 -0.1830273296
C  C27  1  0.01510000  0.90360000  0.64020000  1.0 0.1101990456
C  C28  1  0.90830000  0.12610000  0.45950000  1.0 0.0785944634
C  C29  1  0.90260000  0.82480000  0.59770000  1.0 0.070797959
C  C30  1  0.99850000  0.24760000  0.53820000  1.0 0.5158269095
C  C31  1  0.89830000  0.43930000  0.47500000  1.0 -0.1830273296
C  C32  1  0.01360000  0.84630000  0.62240000  1.0 -0.2578927725
C  C33  1  0.02690000  0.76010000  0.22280000  1.0 0.1172938277
C  C34  1  0.87700000  0.23860000  0.57150000  1.0 -0.0804223073
C  C35  1  0.19730000  0.77880000  0.16090000  1.0 0.0898782704
C  C36  1  0.15200000  0.77900000  0.21220000  1.0 -0.1830273296
C  C37  1  0.95140000  0.74220000  0.18060000  1.0 -0.1982885909
C  C38  1  0.00310000  0.74380000  0.13020000  1.0 0.070797959
C  C39  1  0.79790000  0.91720000  0.61290000  1.0 -0.0728913806
C  C40  1  0.91020000  0.93920000  0.63630000  1.0 -0.1641932092
C  C41  1  0.80540000  0.06060000  0.96220000  1.0 -0.1830273296
C  C42  1  0.81910000  0.61960000  0.94460000  1.0 0.0605990664
C  C43  1  0.69560000  0.02980000  0.94720000  1.0 0.1101990456
C  C44  1  0.69480000  0.96540000  0.94440000  1.0 0.1101990456
C  C45  1  0.61040000  0.62080000  0.97560000  1.0 0.0605990664
C  C46  1  0.58360000  0.06200000  0.93580000  1.0 -0.2104952316
C  C47  1  0.48380000  0.24790000  0.04030000  1.0 0.5510500558
C  C48  1  0.44130000  0.25520000  0.81960000  1.0 -0.2104952316
C  C49  1  0.58640000  0.93300000  0.95880000  1.0 -0.1860323958
C  C50  1  0.80160000  0.12100000  0.96620000  1.0 0.070797959
C  C51  1  0.58950000  0.37400000  0.94660000  1.0 0.070797959
C  C52  1  0.70440000  0.46450000  0.95900000  1.0 0.1172938277
C  C53  1  0.79920000  0.37050000  0.97530000  1.0 0.0785944634
C  C54  1  0.80370000  0.93350000  0.92820000  1.0 -0.1860323958
C  C55  1  0.58720000  0.12260000  0.94050000  1.0 0.070797959
C  C56  1  0.81080000  0.43090000  0.97350000  1.0 -0.1982885909
C  C57  1  0.69530000  0.23410000  0.84060000  1.0 0.0785944634
C  C58  1  0.70960000  0.52900000  0.95850000  1.0 0.0898782704
C  C59  1  0.59180000  0.43440000  0.94500000  1.0 -0.1830273296
C  C60  1  0.52320000  0.24200000  0.77740000  1.0 0.1294578789
C  C61  1  0.79970000  0.87340000  0.92970000  1.0 0.0464792438
C  C62  1  0.65330000  0.23140000  0.78860000  1.0 -0.2104952316
C  C63  1  0.49050000  0.25600000  0.86960000  1.0 0.0201475595
C  C64  1  0.70410000  0.13880000  0.09290000  1.0 -0.1430116109
C  C65  1  0.60080000  0.23740000  0.07640000  1.0 -0.007015773
C  C66  1  0.81960000  0.55910000  0.94300000  1.0 -0.1830273296
C  C67  1  0.48490000  0.09640000  0.14020000  1.0 0.1101990456
C  C68  1  0.59170000  0.87390000  0.95950000  1.0 0.0785944634
C  C69  1  0.59740000  0.17520000  0.09770000  1.0 0.070797959
C  C70  1  0.50150000  0.75240000  0.03820000  1.0 0.5158269095
C  C71  1  0.60170000  0.56070000  0.97500000  1.0 -0.1830273296
C  C72  1  0.48640000  0.15370000  0.12240000  1.0 -0.2578927725
C  C73  1  0.47310000  0.23990000  0.72280000  1.0 0.1172938277
C  C74  1  0.62300000  0.76140000  0.07150000  1.0 -0.0804223073
C  C75  1  0.30270000  0.22120000  0.66090000  1.0 0.0898782704
C  C76  1  0.34800000  0.22100000  0.71220000  1.0 -0.1830273296
C  C77  1  0.54860000  0.25780000  0.68060000  1.0 -0.1982885909
C  C78  1  0.49690000  0.25620000  0.63020000  1.0 0.070797959
C  C79  1  0.70210000  0.08280000  0.11290000  1.0 -0.0728913806
C  C80  1  0.58980000  0.06080000  0.13630000  1.0 -0.1641932092
C  C81  1  0.30540000  0.43940000  0.03780000  1.0 -0.1830273296
C  C82  1  0.31910000  0.88040000  0.05540000  1.0 0.0605990664
C  C83  1  0.19560000  0.47020000  0.05280000  1.0 0.1101990456
C  C84  1  0.19480000  0.53460000  0.05560000  1.0 0.1101990456
C  C85  1  0.11040000  0.87920000  0.02440000  1.0 0.0605990664
C  C86  1  0.08360000  0.43800000  0.06420000  1.0 -0.2104952316
C  C87  1  0.98380000  0.25210000  0.95970000  1.0 0.5510500558
C  C88  1  0.94130000  0.24480000  0.18040000  1.0 -0.2104952316
C  C89  1  0.08640000  0.56700000  0.04120000  1.0 -0.1860323958
C  C90  1  0.30160000  0.37900000  0.03380000  1.0 0.070797959
C  C91  1  0.08950000  0.12600000  0.05340000  1.0 0.070797959
C  C92  1  0.20440000  0.03550000  0.04100000  1.0 0.1172938277
C  C93  1  0.29920000  0.12950000  0.02470000  1.0 0.0785944634
C  C94  1  0.30370000  0.56650000  0.07180000  1.0 -0.1860323958
C  C95  1  0.08720000  0.37740000  0.05950000  1.0 0.070797959
C  C96  1  0.31080000  0.06910000  0.02650000  1.0 -0.1982885909
C  C97  1  0.19530000  0.26590000  0.15940000  1.0 0.0785944634
C  C98  1  0.20960000  0.97100000  0.04150000  1.0 0.0898782704
C  C99  1  0.09180000  0.06560000  0.05500000  1.0 -0.1830273296
C  C100  1  0.02320000  0.25800000  0.22260000  1.0 0.1294578789
C  C101  1  0.29970000  0.62660000  0.07030000  1.0 0.0464792438
C  C102  1  0.15330000  0.26860000  0.21140000  1.0 -0.2104952316
C  C103  1  0.99050000  0.24400000  0.13040000  1.0 0.0201475595
C  C104  1  0.20410000  0.36120000  0.90710000  1.0 -0.1430116109
C  C105  1  0.10080000  0.26260000  0.92360000  1.0 -0.007015773
C  C106  1  0.31960000  0.94090000  0.05700000  1.0 -0.1830273296
C  C107  1  0.98490000  0.40360000  0.85980000  1.0 0.1101990456
C  C108  1  0.09170000  0.62610000  0.04050000  1.0 0.0785944634
C  C109  1  0.09740000  0.32480000  0.90230000  1.0 0.070797959
C  C110  1  0.00150000  0.74760000  0.96180000  1.0 0.5142451413
C  C111  1  0.10170000  0.93930000  0.02500000  1.0 -0.1830273296
C  C112  1  0.98640000  0.34630000  0.87760000  1.0 -0.2578927725
C  C113  1  0.97310000  0.26010000  0.27720000  1.0 0.1172938277
C  C114  1  0.12300000  0.73860000  0.92850000  1.0 -0.0804223073
C  C115  1  0.80270000  0.27880000  0.33910000  1.0 0.0898782704
C  C116  1  0.84800000  0.27900000  0.28780000  1.0 -0.1830273296
C  C117  1  0.04860000  0.24220000  0.31940000  1.0 -0.1982885909
C  C118  1  0.99690000  0.24380000  0.36980000  1.0 0.070797959
C  C119  1  0.20210000  0.41720000  0.88710000  1.0 -0.0728913806
C  C120  1  0.08980000  0.43920000  0.86370000  1.0 -0.1641932092
C  C121  1  0.19460000  0.56060000  0.53780000  1.0 -0.1830273296
C  C122  1  0.18090000  0.11960000  0.55540000  1.0 0.0605990664
C  C123  1  0.30440000  0.52980000  0.55280000  1.0 0.1101990456
C  C124  1  0.30520000  0.46540000  0.55560000  1.0 0.1101990456
C  C125  1  0.38960000  0.12080000  0.52440000  1.0 0.0605990664
C  C126  1  0.41640000  0.56200000  0.56420000  1.0 -0.2104952316
C  C127  1  0.51620000  0.74790000  0.45970000  1.0 0.5510500558
C  C128  1  0.55870000  0.75520000  0.68040000  1.0 -0.2104952316
C  C129  1  0.41360000  0.43300000  0.54120000  1.0 -0.1860323958
C  C130  1  0.19840000  0.62100000  0.53380000  1.0 0.070797959
C  C131  1  0.41050000  0.87400000  0.55340000  1.0 0.070797959
C  C132  1  0.29560000  0.96450000  0.54100000  1.0 0.1172938277
C  C133  1  0.20080000  0.87050000  0.52470000  1.0 0.0785944634
C  C134  1  0.19630000  0.43350000  0.57180000  1.0 -0.1860323958
C  C135  1  0.41280000  0.62260000  0.55950000  1.0 0.070797959
C  C136  1  0.18920000  0.93090000  0.52650000  1.0 -0.1982885909
C  C137  1  0.30470000  0.73410000  0.65940000  1.0 0.0785944634
C  C138  1  0.29040000  0.02900000  0.54150000  1.0 0.0898782704
C  C139  1  0.40820000  0.93440000  0.55500000  1.0 -0.1830273296
C  C140  1  0.47680000  0.74200000  0.72260000  1.0 0.1294578789
C  C141  1  0.20030000  0.37340000  0.57030000  1.0 0.0464792438
C  C142  1  0.34670000  0.73140000  0.71140000  1.0 -0.2104952316
C  C143  1  0.50950000  0.75600000  0.63040000  1.0 0.0201475595
C  C144  1  0.29590000  0.63880000  0.40710000  1.0 -0.1430116109
C  C145  1  0.39920000  0.73740000  0.42360000  1.0 -0.007015773
C  C146  1  0.18040000  0.05910000  0.55700000  1.0 -0.1830273296
C  C147  1  0.51510000  0.59640000  0.35980000  1.0 0.1101990456
C  C148  1  0.40830000  0.37390000  0.54050000  1.0 0.0785944634
C  C149  1  0.40260000  0.67520000  0.40230000  1.0 0.070797959
C  C150  1  0.49850000  0.25240000  0.46180000  1.0 0.5158269095
C  C151  1  0.39830000  0.06070000  0.52500000  1.0 -0.1830273296
C  C152  1  0.51360000  0.65370000  0.37760000  1.0 -0.2578927725
C  C153  1  0.52690000  0.73990000  0.77720000  1.0 0.1172938277
C  C154  1  0.37700000  0.26140000  0.42850000  1.0 -0.0804223073
C  C155  1  0.69730000  0.72120000  0.83910000  1.0 0.0898782704
C  C156  1  0.65200000  0.72100000  0.78780000  1.0 -0.1830273296
C  C157  1  0.45140000  0.75780000  0.81940000  1.0 -0.1982885909
C  C158  1  0.50310000  0.75620000  0.86980000  1.0 0.070797959
C  C159  1  0.29790000  0.58280000  0.38710000  1.0 -0.0728913806
C  C160  1  0.41020000  0.56080000  0.36370000  1.0 -0.1641932092
C  C209  1  0.66720000  0.08910000  0.65440000  1.0 0.4922223576
C  C210  1  0.83280000  0.91090000  0.15440000  1.0 0.4922223576
C  C211  1  0.33280000  0.58910000  0.84560000  1.0 0.4922223576
C  C212  1  0.16720000  0.41090000  0.34560000  1.0 0.4922223576
C  C161  1  0.87800000  0.27360000  0.62210000  0.2 -0.002605176
C  C162  1  0.84100000  0.33180000  0.62530000  0.2 -0.0263637358
C  C163  1  0.85200000  0.36160000  0.67250000  0.2 -0.002605176
C  C164  1  0.90000000  0.33320000  0.71660000  0.2 -0.0804223073
C  C165  1  0.93600000  0.27500000  0.71340000  0.2 -0.0157392639
C  C166  1  0.92500000  0.24520000  0.66620000  0.2 -0.0804223073
C  C167  1  0.62200000  0.72640000  0.12210000  0.2 -0.002605176
C  C168  1  0.65900000  0.66820000  0.12530000  0.2 -0.0263637358
C  C169  1  0.64800000  0.63840000  0.17250000  0.2 -0.002605176
C  C170  1  0.60000000  0.66680000  0.21660000  0.2 -0.0804223073
C  C171  1  0.56400000  0.72500000  0.21340000  0.2 -0.0157392639
C  C172  1  0.57500000  0.75480000  0.16620000  0.2 -0.0804223073
C  C173  1  0.12200000  0.77360000  0.87790000  0.2 -0.002605176
C  C174  1  0.15900000  0.83180000  0.87470000  0.2 -0.0263637358
C  C175  1  0.14800000  0.86160000  0.82750000  0.2 -0.002605176
C  C176  1  0.10000000  0.83320000  0.78340000  0.2 -0.0804223073
C  C177  1  0.06400000  0.77500000  0.78660000  0.2 -0.0157392639
C  C178  1  0.07500000  0.74520000  0.83380000  0.2 -0.0804223073
C  C179  1  0.37800000  0.22640000  0.37790000  0.2 -0.002605176
C  C180  1  0.34100000  0.16820000  0.37470000  0.2 -0.0263637358
C  C181  1  0.35200000  0.13840000  0.32750000  0.2 -0.002605176
C  C182  1  0.40000000  0.16680000  0.28340000  0.2 -0.0804223073
C  C183  1  0.43600000  0.22500000  0.28660000  0.2 -0.0157392639
C  C184  1  0.42500000  0.25480000  0.33380000  0.2 -0.0804223073
C  C185  1  0.87170000  0.28440000  0.61460000  0.8 -0.007015773
C  C186  1  0.81090000  0.33790000  0.60720000  0.8 -0.0263637358
C  C187  1  0.81170000  0.37920000  0.64710000  0.8 -0.1173525993
C  C188  1  0.87350000  0.36710000  0.69430000  0.8 -0.0804223073
C  C189  1  0.93440000  0.31360000  0.70160000  0.8 0.0201475595
C  C190  1  0.93350000  0.27230000  0.66180000  0.8 -0.0487683396
C  C191  1  0.62830000  0.71560000  0.11460000  0.8 -0.007015773
C  C192  1  0.68910000  0.66210000  0.10720000  0.8 -0.0263637358
C  C193  1  0.68830000  0.62080000  0.14710000  0.8 -0.1173525993
C  C194  1  0.62650000  0.63290000  0.19430000  0.8 -0.0804223073
C  C195  1  0.56560000  0.68640000  0.20160000  0.8 0.0201475595
C  C196  1  0.56650000  0.72770000  0.16180000  0.8 -0.0487683396
C  C197  1  0.12830000  0.78440000  0.88540000  0.8 -0.007015773
C  C198  1  0.18910000  0.83790000  0.89280000  0.8 -0.0263637358
C  C199  1  0.18830000  0.87920000  0.85290000  0.8 -0.1173525993
C  C200  1  0.12650000  0.86710000  0.80570000  0.8 -0.0804223073
C  C201  1  0.06560000  0.81360000  0.79840000  0.8 0.0201475595
C  C202  1  0.06650000  0.77230000  0.83820000  0.8 -0.0487683396
C  C203  1  0.37170000  0.21560000  0.38540000  0.8 -0.007015773
C  C204  1  0.31090000  0.16210000  0.39280000  0.8 -0.0263637358
C  C205  1  0.31170000  0.12080000  0.35290000  0.8 -0.1173525993
C  C206  1  0.37350000  0.13290000  0.30570000  0.8 -0.0804223073
C  C207  1  0.43440000  0.18640000  0.29840000  0.8 0.0201475595
C  C208  1  0.43350000  0.22770000  0.33820000  0.8 -0.0487683396
S  S1  1  0.72720000  0.08802000  0.58737000  1.0 0.988578368
S  S2  1  0.77280000  0.91198000  0.08737000  1.0 0.988578368
S  S3  1  0.27280000  0.58802000  0.91263000  1.0 0.988578368
S  S4  1  0.22720000  0.41198000  0.41263000  1.0 0.988578368
N  N1  1  0.80810000  0.65830000  0.46140000  1.0 -0.2382774464
N  N2  1  0.78590000  0.34870000  0.46020000  1.0 -0.2578927725
N  N3  1  0.80780000  0.84770000  0.45580000  1.0 -0.2196821328
N  N4  1  0.80290000  0.15740000  0.44710000  1.0 -0.2343301438
N  N5  1  0.88450000  0.75340000  0.38040000  1.0 -0.2196821328
N  N6  1  0.12500000  0.76070000  0.12060000  1.0 -0.2104952316
N  N7  1  0.69190000  0.34170000  0.96140000  1.0 -0.2382774464
N  N8  1  0.71410000  0.65130000  0.96020000  1.0 -0.2578927725
N  N9  1  0.69220000  0.15230000  0.95580000  1.0 -0.2196821328
N  N10  1  0.69710000  0.84260000  0.94710000  1.0 -0.2343301438
N  N11  1  0.61550000  0.24660000  0.88040000  1.0 -0.2196821328
N  N12  1  0.37500000  0.23930000  0.62060000  1.0 -0.2104952316
N  N13  1  0.19190000  0.15830000  0.03860000  1.0 -0.2382774464
N  N14  1  0.21410000  0.84870000  0.03980000  1.0 -0.2578927725
N  N15  1  0.19220000  0.34770000  0.04420000  1.0 -0.2196821328
N  N16  1  0.19710000  0.65740000  0.05290000  1.0 -0.2343301438
N  N17  1  0.11550000  0.25340000  0.11960000  1.0 -0.2196821328
N  N18  1  0.87500000  0.26070000  0.37940000  1.0 -0.2104952316
N  N19  1  0.30810000  0.84170000  0.53860000  1.0 -0.2382774464
N  N20  1  0.28590000  0.15130000  0.53980000  1.0 -0.2578927725
N  N21  1  0.30780000  0.65230000  0.54420000  1.0 -0.2196821328
N  N22  1  0.30290000  0.34260000  0.55290000  1.0 -0.2343301438
N  N23  1  0.38450000  0.74660000  0.61960000  1.0 -0.2196821328
N  N24  1  0.62500000  0.73930000  0.87940000  1.0 -0.2104952316
Cl  Cl1  1  0.15590000  0.93049000  0.66938000  1.0 -0.1023900695
Cl  Cl2  1  0.34410000  0.06951000  0.16938000  1.0 -0.1023900695
Cl  Cl3  1  0.84410000  0.43049000  0.83062000  1.0 -0.1023900695
Cl  Cl4  1  0.65590000  0.56951000  0.33062000  1.0 -0.1023900695
Cl  Cl5  1  0.99680000  0.23500000  0.76710000  0.2 -0.1023900695
Cl  Cl6  1  0.50320000  0.76500000  0.26710000  0.2 -0.1023900695
Cl  Cl7  1  0.00320000  0.73500000  0.73290000  0.2 -0.1023900695
Cl  Cl8  1  0.49680000  0.26500000  0.23290000  0.2 -0.1023900695
Cl  Cl9  1  0.01460000  0.29550000  0.76026000  0.8 -0.0359497331
Cl  Cl10  1  0.48540000  0.70450000  0.26026000  0.8 -0.0359497331
Cl  Cl11  1  0.98540000  0.79550000  0.73974000  0.8 -0.0359497331
Cl  Cl12  1  0.51460000  0.20450000  0.23974000  0.8 -0.0359497331
O  O1  1  0.12360000  0.74630000  0.56301000  1.0 -0.5398486368
O  O2  1  0.99990000  0.75220000  0.49098000  1.0 -0.5605480187
O  O3  1  0.98610000  0.25410000  0.48996000  1.0 -0.4904864393
O  O4  1  0.76390000  0.24380000  0.53962000  1.0 -0.5097653381
O  O5  1  0.10420000  0.24730000  0.56310000  1.0 -0.5323503874
O  O6  1  0.78170000  0.75280000  0.54723000  1.0 -0.4759985916
O  O7  1  0.37640000  0.25370000  0.06301000  1.0 -0.5398486368
O  O8  1  0.50010000  0.24780000  0.99098000  1.0 -0.5605480187
O  O9  1  0.51390000  0.74590000  0.98996000  1.0 -0.4904864393
O  O10  1  0.73610000  0.75620000  0.03962000  1.0 -0.5097653381
O  O11  1  0.39580000  0.75270000  0.06310000  1.0 -0.5323503874
O  O12  1  0.71830000  0.24720000  0.04723000  1.0 -0.4759985916
O  O13  1  0.87640000  0.24630000  0.93699000  1.0 -0.5398486368
O  O14  1  0.00010000  0.25220000  0.00902000  1.0 -0.5605480187
O  O15  1  0.01390000  0.75410000  0.01004000  1.0 -0.4904864393
O  O16  1  0.23610000  0.74380000  0.96038000  1.0 -0.5097653381
O  O17  1  0.89580000  0.74730000  0.93690000  1.0 -0.5323503874
O  O18  1  0.21830000  0.25280000  0.95277000  1.0 -0.4759985916
O  O19  1  0.62360000  0.75370000  0.43699000  1.0 -0.5398486368
O  O20  1  0.49990000  0.74780000  0.50902000  1.0 -0.5605480187
O  O21  1  0.48610000  0.24590000  0.51004000  1.0 -0.4904864393
O  O22  1  0.26390000  0.25620000  0.46038000  1.0 -0.5097653381
O  O23  1  0.60420000  0.25270000  0.43690000  1.0 -0.5323503874
O  O24  1  0.28170000  0.74720000  0.45277000  1.0 -0.4759985916
O  O25  1  0.66910000  0.13970000  0.56560000  1.0 -0.5501317344
O  O26  1  0.68000000  0.03480000  0.56570000  1.0 -0.5501317344
O  O27  1  0.86810000  0.09130000  0.59390000  1.0 -0.572324004
O  O28  1  0.83090000  0.86030000  0.06560000  1.0 -0.5501317344
O  O29  1  0.82000000  0.96520000  0.06570000  1.0 -0.5501317344
O  O30  1  0.63190000  0.90870000  0.09390000  1.0 -0.572324004
O  O31  1  0.33090000  0.63970000  0.93440000  1.0 -0.5501317344
O  O32  1  0.32000000  0.53480000  0.93430000  1.0 -0.5501317344
O  O33  1  0.13190000  0.59130000  0.90610000  1.0 -0.572324004
O  O34  1  0.16910000  0.36030000  0.43440000  1.0 -0.5501317344
O  O35  1  0.18000000  0.46520000  0.43430000  1.0 -0.5501317344
O  O36  1  0.36810000  0.40870000  0.40610000  1.0 -0.572324004
F  F1  1  0.70470000  0.04080000  0.67950000  1.0 -0.1860323958
F  F2  1  0.70660000  0.13500000  0.67920000  1.0 -0.1982885909
F  F3  1  0.53650000  0.08970000  0.65500000  1.0 -0.1830273296
F  F4  1  0.79530000  0.95920000  0.17950000  1.0 -0.1830273296
F  F5  1  0.79340000  0.86500000  0.17920000  1.0 -0.1982885909
F  F6  1  0.96350000  0.91030000  0.15500000  1.0 -0.1830273296
F  F7  1  0.29530000  0.54080000  0.82050000  1.0 -0.1860323958
F  F8  1  0.29340000  0.63500000  0.82080000  1.0 -0.1982885909
F  F9  1  0.46350000  0.58970000  0.84500000  1.0 -0.1830273296
F  F10  1  0.20470000  0.45920000  0.32050000  1.0 -0.1830273296
F  F11  1  0.20660000  0.36500000  0.32080000  1.0 -0.1982885909
F  F12  1  0.03650000  0.41030000  0.34500000  1.0 -0.1830273296
