# DDEC6 charges by PACMAN v1.1 (https://github.com/mtap-research/PACMAN-charge/)
data_om701262m-file005_ASR_pacman
_symmetry_space_group_name_H-M   'P 1'
_cell_length_a   14.25460000
_cell_length_b   23.68130000
_cell_length_c   24.01320000
_cell_angle_alpha   90.00000000
_cell_angle_beta   90.00000000
_cell_angle_gamma   90.00000000
_symmetry_Int_Tables_number   1
_chemical_formula_structural   Zn3Ge2H32(C7O2)8
_chemical_formula_sum   'Zn12 Ge8 H128 C224 O64'
_cell_volume   8106.07490598
_cell_formula_units_Z   4
loop_
 _symmetry_equiv_pos_site_id
 _symmetry_equiv_pos_as_xyz
  1  'x, y, z'
loop_
 _atom_site_type_symbol
 _atom_site_label
 _atom_site_symmetry_multiplicity
 _atom_site_fract_x
 _atom_site_fract_y
 _atom_site_fract_z
 _atom_site_occupancy
 _atom_site_charge
Zn  Zn1  1  0.75000000  0.75000000  0.75000000  1.0 1.0260977644
Zn  Zn2  1  0.25000000  0.25000000  0.75000000  1.0 1.0260977644
Zn  Zn3  1  0.25000000  0.75000000  0.25000000  1.0 1.0260977644
Zn  Zn4  1  0.75000000  0.25000000  0.25000000  1.0 1.0260977644
Zn  Zn5  1  0.31113000  0.38644000  0.76346000  1.0 0.8113716741
Zn  Zn6  1  0.68887000  0.61356000  0.76346000  1.0 0.8113716741
Zn  Zn7  1  0.68887000  0.38644000  0.23654000  1.0 0.8113716741
Zn  Zn8  1  0.31113000  0.61356000  0.23654000  1.0 0.8113716741
Zn  Zn9  1  0.18887000  0.11356000  0.73654000  1.0 0.8113716741
Zn  Zn10  1  0.81113000  0.88644000  0.73654000  1.0 0.8113716741
Zn  Zn11  1  0.81113000  0.11356000  0.26346000  1.0 0.8113716741
Zn  Zn12  1  0.18887000  0.88644000  0.26346000  1.0 0.8113716741
Ge  Ge1  1  0.31324000  0.73297000  0.88924000  1.0 0.6591789324
Ge  Ge2  1  0.68676000  0.26703000  0.88924000  1.0 0.6591789324
Ge  Ge3  1  0.68676000  0.73297000  0.11076000  1.0 0.6591789324
Ge  Ge4  1  0.31324000  0.26703000  0.11076000  1.0 0.6591789324
Ge  Ge5  1  0.18676000  0.76703000  0.61076000  1.0 0.6591789324
Ge  Ge6  1  0.81324000  0.23297000  0.61076000  1.0 0.6591789324
Ge  Ge7  1  0.81324000  0.76703000  0.38924000  1.0 0.6591789324
Ge  Ge8  1  0.18676000  0.23297000  0.38924000  1.0 0.6591789324
H  H1  1  0.46200000  0.80880000  0.93690000  1.0 0.1104721731
H  H2  1  0.53800000  0.19120000  0.93690000  1.0 0.1104721731
H  H3  1  0.53800000  0.80880000  0.06310000  1.0 0.1104721731
H  H4  1  0.46200000  0.19120000  0.06310000  1.0 0.1104721731
H  H5  1  0.03800000  0.69120000  0.56310000  1.0 0.1104721731
H  H6  1  0.96200000  0.30880000  0.56310000  1.0 0.1104721731
H  H7  1  0.96200000  0.69120000  0.43690000  1.0 0.1104721731
H  H8  1  0.03800000  0.30880000  0.43690000  1.0 0.1104721731
H  H9  1  0.59200000  0.85760000  0.90310000  1.0 0.1176422448
H  H10  1  0.40800000  0.14240000  0.90310000  1.0 0.1176422448
H  H11  1  0.40800000  0.85760000  0.09690000  1.0 0.1176422448
H  H12  1  0.59200000  0.14240000  0.09690000  1.0 0.1176422448
H  H13  1  0.90800000  0.64240000  0.59690000  1.0 0.1176422448
H  H14  1  0.09200000  0.35760000  0.59690000  1.0 0.1176422448
H  H15  1  0.09200000  0.64240000  0.40310000  1.0 0.1176422448
H  H16  1  0.90800000  0.35760000  0.40310000  1.0 0.1176422448
H  H17  1  0.52930000  0.80660000  0.74720000  1.0 0.1176422448
H  H18  1  0.47070000  0.19340000  0.74720000  1.0 0.1176422448
H  H19  1  0.47070000  0.80660000  0.25280000  1.0 0.1176422448
H  H20  1  0.52930000  0.19340000  0.25280000  1.0 0.1176422448
H  H21  1  0.97070000  0.69340000  0.75280000  1.0 0.1176422448
H  H22  1  0.02930000  0.30660000  0.75280000  1.0 0.1176422448
H  H23  1  0.02930000  0.69340000  0.24720000  1.0 0.1176422448
H  H24  1  0.97070000  0.30660000  0.24720000  1.0 0.1176422448
H  H25  1  0.39600000  0.76160000  0.77990000  1.0 0.1104721731
H  H26  1  0.60400000  0.23840000  0.77990000  1.0 0.1104721731
H  H27  1  0.60400000  0.76160000  0.22010000  1.0 0.1104721731
H  H28  1  0.39600000  0.23840000  0.22010000  1.0 0.1104721731
H  H29  1  0.10400000  0.73840000  0.72010000  1.0 0.1104721731
H  H30  1  0.89600000  0.26160000  0.72010000  1.0 0.1104721731
H  H31  1  0.89600000  0.73840000  0.27990000  1.0 0.1104721731
H  H32  1  0.10400000  0.26160000  0.27990000  1.0 0.1104721731
H  H33  1  0.45640000  0.64990000  0.84750000  1.0 0.1176422448
H  H34  1  0.54360000  0.35010000  0.84750000  1.0 0.1176422448
H  H35  1  0.54360000  0.64990000  0.15250000  1.0 0.1176422448
H  H36  1  0.45640000  0.35010000  0.15250000  1.0 0.1176422448
H  H37  1  0.04360000  0.85010000  0.65250000  1.0 0.1176422448
H  H38  1  0.95640000  0.14990000  0.65250000  1.0 0.1176422448
H  H39  1  0.95640000  0.85010000  0.34750000  1.0 0.1176422448
H  H40  1  0.04360000  0.14990000  0.34750000  1.0 0.1176422448
H  H41  1  0.45480000  0.55960000  0.81120000  1.0 0.0964096907
H  H42  1  0.54520000  0.44040000  0.81120000  1.0 0.0964096907
H  H43  1  0.54520000  0.55960000  0.18880000  1.0 0.0964096907
H  H44  1  0.45480000  0.44040000  0.18880000  1.0 0.0964096907
H  H45  1  0.04520000  0.94040000  0.68880000  1.0 0.0964096907
H  H46  1  0.95480000  0.05960000  0.68880000  1.0 0.0964096907
H  H47  1  0.95480000  0.94040000  0.31120000  1.0 0.0964096907
H  H48  1  0.04520000  0.05960000  0.31120000  1.0 0.0964096907
H  H49  1  0.17800000  0.55910000  0.81050000  1.0 0.1104721731
H  H50  1  0.82200000  0.44090000  0.81050000  1.0 0.1104721731
H  H51  1  0.82200000  0.55910000  0.18950000  1.0 0.1104721731
H  H52  1  0.17800000  0.44090000  0.18950000  1.0 0.1104721731
H  H53  1  0.32200000  0.94090000  0.68950000  1.0 0.1104721731
H  H54  1  0.67800000  0.05910000  0.68950000  1.0 0.1104721731
H  H55  1  0.67800000  0.94090000  0.31050000  1.0 0.1104721731
H  H56  1  0.32200000  0.05910000  0.31050000  1.0 0.1104721731
H  H57  1  0.17610000  0.65150000  0.84370000  1.0 0.1104721731
H  H58  1  0.82390000  0.34850000  0.84370000  1.0 0.1104721731
H  H59  1  0.82390000  0.65150000  0.15630000  1.0 0.1104721731
H  H60  1  0.17610000  0.34850000  0.15630000  1.0 0.1104721731
H  H61  1  0.32390000  0.84850000  0.65630000  1.0 0.1104721731
H  H62  1  0.67610000  0.15150000  0.65630000  1.0 0.1104721731
H  H63  1  0.67610000  0.84850000  0.34370000  1.0 0.1104721731
H  H64  1  0.32390000  0.15150000  0.34370000  1.0 0.1104721731
H  H65  1  0.24150000  0.82590000  0.81610000  1.0 0.1104721731
H  H66  1  0.75850000  0.17410000  0.81610000  1.0 0.1104721731
H  H67  1  0.75850000  0.82590000  0.18390000  1.0 0.1104721731
H  H68  1  0.24150000  0.17410000  0.18390000  1.0 0.1104721731
H  H69  1  0.25850000  0.67410000  0.68390000  1.0 0.1104721731
H  H70  1  0.74150000  0.32590000  0.68390000  1.0 0.1104721731
H  H71  1  0.74150000  0.67410000  0.31610000  1.0 0.1104721731
H  H72  1  0.25850000  0.32590000  0.31610000  1.0 0.1104721731
H  H73  1  0.09690000  0.85510000  0.78330000  1.0 0.1176422448
H  H74  1  0.90310000  0.14490000  0.78330000  1.0 0.1176422448
H  H75  1  0.90310000  0.85510000  0.21670000  1.0 0.1176422448
H  H76  1  0.09690000  0.14490000  0.21670000  1.0 0.1176422448
H  H77  1  0.40310000  0.64490000  0.71670000  1.0 0.1176422448
H  H78  1  0.59690000  0.35510000  0.71670000  1.0 0.1176422448
H  H79  1  0.59690000  0.64490000  0.28330000  1.0 0.1176422448
H  H80  1  0.40310000  0.35510000  0.28330000  1.0 0.1176422448
H  H81  1  0.96810000  0.74020000  0.88230000  1.0 0.1298828695
H  H82  1  0.03190000  0.25980000  0.88230000  1.0 0.1298828695
H  H83  1  0.03190000  0.74020000  0.11770000  1.0 0.1298828695
H  H84  1  0.96810000  0.25980000  0.11770000  1.0 0.1298828695
H  H85  1  0.53190000  0.75980000  0.61770000  1.0 0.1298828695
H  H86  1  0.46810000  0.24020000  0.61770000  1.0 0.1298828695
H  H87  1  0.46810000  0.75980000  0.38230000  1.0 0.1298828695
H  H88  1  0.53190000  0.24020000  0.38230000  1.0 0.1298828695
H  H89  1  0.11360000  0.71510000  0.91910000  1.0 0.1104721731
H  H90  1  0.88640000  0.28490000  0.91910000  1.0 0.1104721731
H  H91  1  0.88640000  0.71510000  0.08090000  1.0 0.1104721731
H  H92  1  0.11360000  0.28490000  0.08090000  1.0 0.1104721731
H  H93  1  0.38640000  0.78490000  0.58090000  1.0 0.1104721731
H  H94  1  0.61360000  0.21510000  0.58090000  1.0 0.1104721731
H  H95  1  0.61360000  0.78490000  0.41910000  1.0 0.1104721731
H  H96  1  0.38640000  0.21510000  0.41910000  1.0 0.1104721731
H  H97  1  0.24850000  0.79160000  0.99250000  1.0 0.1176422448
H  H98  1  0.75150000  0.20840000  0.99250000  1.0 0.1176422448
H  H99  1  0.75150000  0.79160000  0.00750000  1.0 0.1176422448
H  H100  1  0.24850000  0.20840000  0.00750000  1.0 0.1176422448
H  H101  1  0.25150000  0.70840000  0.50750000  1.0 0.1176422448
H  H102  1  0.74850000  0.29160000  0.50750000  1.0 0.1176422448
H  H103  1  0.74850000  0.70840000  0.49250000  1.0 0.1176422448
H  H104  1  0.25150000  0.29160000  0.49250000  1.0 0.1176422448
H  H105  1  0.25340000  0.77560000  0.08760000  1.0 0.1298828695
H  H106  1  0.74660000  0.22440000  0.08760000  1.0 0.1298828695
H  H107  1  0.74660000  0.77560000  0.91240000  1.0 0.1298828695
H  H108  1  0.25340000  0.22440000  0.91240000  1.0 0.1298828695
H  H109  1  0.24660000  0.72440000  0.41240000  1.0 0.1298828695
H  H110  1  0.75340000  0.27560000  0.41240000  1.0 0.1298828695
H  H111  1  0.75340000  0.72440000  0.58760000  1.0 0.1298828695
H  H112  1  0.24660000  0.27560000  0.58760000  1.0 0.1298828695
H  H113  1  0.39980000  0.63260000  0.06170000  1.0 0.1176422448
H  H114  1  0.60020000  0.36740000  0.06170000  1.0 0.1176422448
H  H115  1  0.60020000  0.63260000  0.93830000  1.0 0.1176422448
H  H116  1  0.39980000  0.36740000  0.93830000  1.0 0.1176422448
H  H117  1  0.10020000  0.86740000  0.43830000  1.0 0.1176422448
H  H118  1  0.89980000  0.13260000  0.43830000  1.0 0.1176422448
H  H119  1  0.89980000  0.86740000  0.56170000  1.0 0.1176422448
H  H120  1  0.10020000  0.13260000  0.56170000  1.0 0.1176422448
H  H121  1  0.39650000  0.64880000  0.96660000  1.0 0.1104721731
H  H122  1  0.60350000  0.35120000  0.96660000  1.0 0.1104721731
H  H123  1  0.60350000  0.64880000  0.03340000  1.0 0.1104721731
H  H124  1  0.39650000  0.35120000  0.03340000  1.0 0.1104721731
H  H125  1  0.10350000  0.85120000  0.53340000  1.0 0.1104721731
H  H126  1  0.89650000  0.14880000  0.53340000  1.0 0.1104721731
H  H127  1  0.89650000  0.85120000  0.46660000  1.0 0.1104721731
H  H128  1  0.10350000  0.14880000  0.46660000  1.0 0.1104721731
C  C1  1  0.41743000  0.77805000  0.86220000  1.0 -0.2187403616
C  C2  1  0.58257000  0.22195000  0.86220000  1.0 -0.2187403616
C  C3  1  0.58257000  0.77805000  0.13780000  1.0 -0.2187403616
C  C4  1  0.41743000  0.22195000  0.13780000  1.0 -0.2187403616
C  C5  1  0.08257000  0.72195000  0.63780000  1.0 -0.2187403616
C  C6  1  0.91743000  0.27805000  0.63780000  1.0 -0.2187403616
C  C7  1  0.91743000  0.72195000  0.36220000  1.0 -0.2187403616
C  C8  1  0.08257000  0.27805000  0.36220000  1.0 -0.2187403616
C  C9  1  0.47565000  0.80803000  0.89817000  1.0 -0.0992430499
C  C10  1  0.52435000  0.19197000  0.89817000  1.0 -0.0992430499
C  C11  1  0.52435000  0.80803000  0.10183000  1.0 -0.0992430499
C  C12  1  0.47565000  0.19197000  0.10183000  1.0 -0.0992430499
C  C13  1  0.02435000  0.69197000  0.60183000  1.0 -0.0992430499
C  C14  1  0.97565000  0.30803000  0.60183000  1.0 -0.0992430499
C  C15  1  0.97565000  0.69197000  0.39817000  1.0 -0.0992430499
C  C16  1  0.02435000  0.30803000  0.39817000  1.0 -0.0992430499
C  C17  1  0.55339000  0.83686000  0.87817000  1.0 -0.0885985287
C  C18  1  0.44661000  0.16314000  0.87817000  1.0 -0.0885985287
C  C19  1  0.44661000  0.83686000  0.12183000  1.0 -0.0885985287
C  C20  1  0.55339000  0.16314000  0.12183000  1.0 -0.0885985287
C  C21  1  0.94661000  0.66314000  0.62183000  1.0 -0.0885985287
C  C22  1  0.05339000  0.33686000  0.62183000  1.0 -0.0885985287
C  C23  1  0.05339000  0.66314000  0.37817000  1.0 -0.0885985287
C  C24  1  0.94661000  0.33686000  0.37817000  1.0 -0.0885985287
C  C25  1  0.57499000  0.83558000  0.82207000  1.0 -0.0020051293
C  C26  1  0.42501000  0.16442000  0.82207000  1.0 -0.0020051293
C  C27  1  0.42501000  0.83558000  0.17793000  1.0 -0.0020051293
C  C28  1  0.57499000  0.16442000  0.17793000  1.0 -0.0020051293
C  C29  1  0.92501000  0.66442000  0.67793000  1.0 -0.0020051293
C  C30  1  0.07499000  0.33558000  0.67793000  1.0 -0.0020051293
C  C31  1  0.07499000  0.66442000  0.32207000  1.0 -0.0020051293
C  C32  1  0.92501000  0.33558000  0.32207000  1.0 -0.0020051293
C  C33  1  0.51562000  0.80713000  0.78591000  1.0 -0.084618206
C  C34  1  0.48438000  0.19287000  0.78591000  1.0 -0.084618206
C  C35  1  0.48438000  0.80713000  0.21409000  1.0 -0.084618206
C  C36  1  0.51562000  0.19287000  0.21409000  1.0 -0.084618206
C  C37  1  0.98438000  0.69287000  0.71409000  1.0 -0.084618206
C  C38  1  0.01562000  0.30713000  0.71409000  1.0 -0.084618206
C  C39  1  0.01562000  0.69287000  0.28591000  1.0 -0.084618206
C  C40  1  0.98438000  0.30713000  0.28591000  1.0 -0.084618206
C  C41  1  0.43713000  0.77964000  0.80540000  1.0 -0.108703479
C  C42  1  0.56287000  0.22036000  0.80540000  1.0 -0.108703479
C  C43  1  0.56287000  0.77964000  0.19460000  1.0 -0.108703479
C  C44  1  0.43713000  0.22036000  0.19460000  1.0 -0.108703479
C  C45  1  0.06287000  0.72036000  0.69460000  1.0 -0.108703479
C  C46  1  0.93713000  0.27964000  0.69460000  1.0 -0.108703479
C  C47  1  0.93713000  0.72036000  0.30540000  1.0 -0.108703479
C  C48  1  0.06287000  0.27964000  0.30540000  1.0 -0.108703479
C  C49  1  0.66443000  0.86030000  0.80171000  1.0 0.5642712314
C  C50  1  0.33557000  0.13970000  0.80171000  1.0 0.5642712314
C  C51  1  0.33557000  0.86030000  0.19829000  1.0 0.5642712314
C  C52  1  0.66443000  0.13970000  0.19829000  1.0 0.5642712314
C  C53  1  0.83557000  0.63970000  0.69829000  1.0 0.5642712314
C  C54  1  0.16443000  0.36030000  0.69829000  1.0 0.5642712314
C  C55  1  0.16443000  0.63970000  0.30171000  1.0 0.5642712314
C  C56  1  0.83557000  0.36030000  0.30171000  1.0 0.5642712314
C  C57  1  0.31590000  0.65929000  0.85323000  1.0 -0.1780810904
C  C58  1  0.68410000  0.34071000  0.85323000  1.0 -0.1780810904
C  C59  1  0.68410000  0.65929000  0.14677000  1.0 -0.1780810904
C  C60  1  0.31590000  0.34071000  0.14677000  1.0 -0.1780810904
C  C61  1  0.18410000  0.84071000  0.64677000  1.0 -0.1780810904
C  C62  1  0.81590000  0.15929000  0.64677000  1.0 -0.1780810904
C  C63  1  0.81590000  0.84071000  0.35323000  1.0 -0.1780810904
C  C64  1  0.18410000  0.15929000  0.35323000  1.0 -0.1780810904
C  C65  1  0.39800000  0.63158000  0.84109000  1.0 -0.1173874538
C  C66  1  0.60200000  0.36842000  0.84109000  1.0 -0.1173874538
C  C67  1  0.60200000  0.63158000  0.15891000  1.0 -0.1173874538
C  C68  1  0.39800000  0.36842000  0.15891000  1.0 -0.1173874538
C  C69  1  0.10200000  0.86842000  0.65891000  1.0 -0.1173874538
C  C70  1  0.89800000  0.13158000  0.65891000  1.0 -0.1173874538
C  C71  1  0.89800000  0.86842000  0.34109000  1.0 -0.1173874538
C  C72  1  0.10200000  0.13158000  0.34109000  1.0 -0.1173874538
C  C73  1  0.39690000  0.57746000  0.81968000  1.0 -0.1780810904
C  C74  1  0.60310000  0.42254000  0.81968000  1.0 -0.1780810904
C  C75  1  0.60310000  0.57746000  0.18032000  1.0 -0.1780810904
C  C76  1  0.39690000  0.42254000  0.18032000  1.0 -0.1780810904
C  C77  1  0.10310000  0.92254000  0.68032000  1.0 -0.1780810904
C  C78  1  0.89690000  0.07746000  0.68032000  1.0 -0.1780810904
C  C79  1  0.89690000  0.92254000  0.31968000  1.0 -0.1780810904
C  C80  1  0.10310000  0.07746000  0.31968000  1.0 -0.1780810904
C  C81  1  0.31690000  0.54942000  0.81046000  1.0 0.0334670183
C  C82  1  0.68310000  0.45058000  0.81046000  1.0 0.0334670183
C  C83  1  0.68310000  0.54942000  0.18954000  1.0 0.0334670183
C  C84  1  0.31690000  0.45058000  0.18954000  1.0 0.0334670183
C  C85  1  0.18310000  0.95058000  0.68954000  1.0 0.0334670183
C  C86  1  0.81690000  0.04942000  0.68954000  1.0 0.0334670183
C  C87  1  0.81690000  0.95058000  0.31046000  1.0 0.0334670183
C  C88  1  0.18310000  0.04942000  0.31046000  1.0 0.0334670183
C  C89  1  0.23570000  0.57739000  0.81880000  1.0 -0.1504036587
C  C90  1  0.76430000  0.42261000  0.81880000  1.0 -0.1504036587
C  C91  1  0.76430000  0.57739000  0.18120000  1.0 -0.1504036587
C  C92  1  0.23570000  0.42261000  0.18120000  1.0 -0.1504036587
C  C93  1  0.26430000  0.92261000  0.68120000  1.0 -0.1504036587
C  C94  1  0.73570000  0.07739000  0.68120000  1.0 -0.1504036587
C  C95  1  0.73570000  0.92261000  0.31880000  1.0 -0.1504036587
C  C96  1  0.26430000  0.07739000  0.31880000  1.0 -0.1504036587
C  C97  1  0.23430000  0.63245000  0.83931000  1.0 -0.0992430499
C  C98  1  0.76570000  0.36755000  0.83931000  1.0 -0.0992430499
C  C99  1  0.76570000  0.63245000  0.16069000  1.0 -0.0992430499
C  C100  1  0.23430000  0.36755000  0.16069000  1.0 -0.0992430499
C  C101  1  0.26570000  0.86755000  0.66069000  1.0 -0.0992430499
C  C102  1  0.73430000  0.13245000  0.66069000  1.0 -0.0992430499
C  C103  1  0.73430000  0.86755000  0.33931000  1.0 -0.0992430499
C  C104  1  0.26570000  0.13245000  0.33931000  1.0 -0.0992430499
C  C105  1  0.19279000  0.76618000  0.86996000  1.0 -0.2143059325
C  C106  1  0.80721000  0.23382000  0.86996000  1.0 -0.2143059325
C  C107  1  0.80721000  0.76618000  0.13004000  1.0 -0.2143059325
C  C108  1  0.19279000  0.23382000  0.13004000  1.0 -0.2143059325
C  C109  1  0.30721000  0.73382000  0.63004000  1.0 -0.2143059325
C  C110  1  0.69279000  0.26618000  0.63004000  1.0 -0.2143059325
C  C111  1  0.69279000  0.73382000  0.36996000  1.0 -0.2143059325
C  C112  1  0.30721000  0.26618000  0.36996000  1.0 -0.2143059325
C  C113  1  0.18602000  0.80850000  0.82978000  1.0 -0.0992430499
C  C114  1  0.81398000  0.19150000  0.82978000  1.0 -0.0992430499
C  C115  1  0.81398000  0.80850000  0.17022000  1.0 -0.0992430499
C  C116  1  0.18602000  0.19150000  0.17022000  1.0 -0.0992430499
C  C117  1  0.31398000  0.69150000  0.67022000  1.0 -0.0992430499
C  C118  1  0.68602000  0.30850000  0.67022000  1.0 -0.0992430499
C  C119  1  0.68602000  0.69150000  0.32978000  1.0 -0.0992430499
C  C120  1  0.31398000  0.30850000  0.32978000  1.0 -0.0992430499
C  C121  1  0.10037000  0.82532000  0.80972000  1.0 -0.0992430499
C  C122  1  0.89963000  0.17468000  0.80972000  1.0 -0.0992430499
C  C123  1  0.89963000  0.82532000  0.19028000  1.0 -0.0992430499
C  C124  1  0.10037000  0.17468000  0.19028000  1.0 -0.0992430499
C  C125  1  0.39963000  0.67468000  0.69028000  1.0 -0.0992430499
C  C126  1  0.60037000  0.32532000  0.69028000  1.0 -0.0992430499
C  C127  1  0.60037000  0.67468000  0.30972000  1.0 -0.0992430499
C  C128  1  0.39963000  0.32532000  0.30972000  1.0 -0.0992430499
C  C129  1  0.01851000  0.79899000  0.82784000  1.0 -0.0099523176
C  C130  1  0.98149000  0.20101000  0.82784000  1.0 -0.0099523176
C  C131  1  0.98149000  0.79899000  0.17216000  1.0 -0.0099523176
C  C132  1  0.01851000  0.20101000  0.17216000  1.0 -0.0099523176
C  C133  1  0.48149000  0.70101000  0.67216000  1.0 -0.0099523176
C  C134  1  0.51851000  0.29899000  0.67216000  1.0 -0.0099523176
C  C135  1  0.51851000  0.70101000  0.32784000  1.0 -0.0099523176
C  C136  1  0.48149000  0.29899000  0.32784000  1.0 -0.0099523176
C  C137  1  0.02360000  0.75776000  0.86893000  1.0 -0.0992430499
C  C138  1  0.97640000  0.24224000  0.86893000  1.0 -0.0992430499
C  C139  1  0.97640000  0.75776000  0.13107000  1.0 -0.0992430499
C  C140  1  0.02360000  0.24224000  0.13107000  1.0 -0.0992430499
C  C141  1  0.47640000  0.74224000  0.63107000  1.0 -0.0992430499
C  C142  1  0.52360000  0.25776000  0.63107000  1.0 -0.0992430499
C  C143  1  0.52360000  0.74224000  0.36893000  1.0 -0.0992430499
C  C144  1  0.47640000  0.25776000  0.36893000  1.0 -0.0992430499
C  C145  1  0.11037000  0.74241000  0.89020000  1.0 -0.108703479
C  C146  1  0.88963000  0.25759000  0.89020000  1.0 -0.108703479
C  C147  1  0.88963000  0.74241000  0.10980000  1.0 -0.108703479
C  C148  1  0.11037000  0.25759000  0.10980000  1.0 -0.108703479
C  C149  1  0.38963000  0.75759000  0.60980000  1.0 -0.108703479
C  C150  1  0.61037000  0.24241000  0.60980000  1.0 -0.108703479
C  C151  1  0.61037000  0.75759000  0.39020000  1.0 -0.108703479
C  C152  1  0.38963000  0.24241000  0.39020000  1.0 -0.108703479
C  C153  1  0.92650000  0.81258000  0.80102000  1.0 0.5784055788
C  C154  1  0.07350000  0.18742000  0.80102000  1.0 0.5784055788
C  C155  1  0.07350000  0.81258000  0.19898000  1.0 0.5784055788
C  C156  1  0.92650000  0.18742000  0.19898000  1.0 0.5784055788
C  C157  1  0.57350000  0.68742000  0.69898000  1.0 0.5784055788
C  C158  1  0.42650000  0.31258000  0.69898000  1.0 0.5784055788
C  C159  1  0.42650000  0.68742000  0.30102000  1.0 0.5784055788
C  C160  1  0.57350000  0.31258000  0.30102000  1.0 0.5784055788
C  C161  1  0.32133000  0.72146000  0.96936000  1.0 -0.2256862957
C  C162  1  0.67867000  0.27854000  0.96936000  1.0 -0.2256862957
C  C163  1  0.67867000  0.72146000  0.03064000  1.0 -0.2256862957
C  C164  1  0.32133000  0.27854000  0.03064000  1.0 -0.2256862957
C  C165  1  0.17867000  0.77854000  0.53064000  1.0 -0.2256862957
C  C166  1  0.82133000  0.22146000  0.53064000  1.0 -0.2256862957
C  C167  1  0.82133000  0.77854000  0.46936000  1.0 -0.2256862957
C  C168  1  0.17867000  0.22146000  0.46936000  1.0 -0.2256862957
C  C169  1  0.27950000  0.75904000  0.00644000  1.0 -0.108703479
C  C170  1  0.72050000  0.24096000  0.00644000  1.0 -0.108703479
C  C171  1  0.72050000  0.75904000  0.99356000  1.0 -0.108703479
C  C172  1  0.27950000  0.24096000  0.99356000  1.0 -0.108703479
C  C173  1  0.22050000  0.74096000  0.49356000  1.0 -0.108703479
C  C174  1  0.77950000  0.25904000  0.49356000  1.0 -0.108703479
C  C175  1  0.77950000  0.74096000  0.50644000  1.0 -0.108703479
C  C176  1  0.22050000  0.25904000  0.50644000  1.0 -0.108703479
C  C177  1  0.28245000  0.74953000  0.06293000  1.0 -0.0885985287
C  C178  1  0.71755000  0.25047000  0.06293000  1.0 -0.0885985287
C  C179  1  0.71755000  0.74953000  0.93707000  1.0 -0.0885985287
C  C180  1  0.28245000  0.25047000  0.93707000  1.0 -0.0885985287
C  C181  1  0.21755000  0.75047000  0.43707000  1.0 -0.0885985287
C  C182  1  0.78245000  0.24953000  0.43707000  1.0 -0.0885985287
C  C183  1  0.78245000  0.75047000  0.56293000  1.0 -0.0885985287
C  C184  1  0.21755000  0.24953000  0.56293000  1.0 -0.0885985287
C  C185  1  0.32683000  0.70282000  0.08409000  1.0 -0.0099523176
C  C186  1  0.67317000  0.29718000  0.08409000  1.0 -0.0099523176
C  C187  1  0.67317000  0.70282000  0.91591000  1.0 -0.0099523176
C  C188  1  0.32683000  0.29718000  0.91591000  1.0 -0.0099523176
C  C189  1  0.17317000  0.79718000  0.41591000  1.0 -0.0099523176
C  C190  1  0.82683000  0.20282000  0.41591000  1.0 -0.0099523176
C  C191  1  0.82683000  0.79718000  0.58409000  1.0 -0.0099523176
C  C192  1  0.17317000  0.20282000  0.58409000  1.0 -0.0099523176
C  C193  1  0.36900000  0.66521000  0.04758000  1.0 -0.0992430499
C  C194  1  0.63100000  0.33479000  0.04758000  1.0 -0.0992430499
C  C195  1  0.63100000  0.66521000  0.95242000  1.0 -0.0992430499
C  C196  1  0.36900000  0.33479000  0.95242000  1.0 -0.0992430499
C  C197  1  0.13100000  0.83479000  0.45242000  1.0 -0.0992430499
C  C198  1  0.86900000  0.16521000  0.45242000  1.0 -0.0992430499
C  C199  1  0.86900000  0.83479000  0.54758000  1.0 -0.0992430499
C  C200  1  0.13100000  0.16521000  0.54758000  1.0 -0.0992430499
C  C201  1  0.36660000  0.67469000  0.99105000  1.0 -0.0992430499
C  C202  1  0.63340000  0.32531000  0.99105000  1.0 -0.0992430499
C  C203  1  0.63340000  0.67469000  0.00895000  1.0 -0.0992430499
C  C204  1  0.36660000  0.32531000  0.00895000  1.0 -0.0992430499
C  C205  1  0.13340000  0.82531000  0.50895000  1.0 -0.0992430499
C  C206  1  0.86660000  0.17469000  0.50895000  1.0 -0.0992430499
C  C207  1  0.86660000  0.82531000  0.49105000  1.0 -0.0992430499
C  C208  1  0.13340000  0.17469000  0.49105000  1.0 -0.0992430499
C  C209  1  0.32426000  0.69130000  0.14536000  1.0 0.5867538352
C  C210  1  0.67574000  0.30870000  0.14536000  1.0 0.5867538352
C  C211  1  0.67574000  0.69130000  0.85464000  1.0 0.5867538352
C  C212  1  0.32426000  0.30870000  0.85464000  1.0 0.5867538352
C  C213  1  0.17574000  0.80870000  0.35464000  1.0 0.5867538352
C  C214  1  0.82426000  0.19130000  0.35464000  1.0 0.5867538352
C  C215  1  0.82426000  0.80870000  0.64536000  1.0 0.5867538352
C  C216  1  0.17574000  0.19130000  0.64536000  1.0 0.5867538352
C  C217  1  0.33990000  0.49120000  0.78250000  0.461 0.2569933321
C  C218  1  0.66010000  0.50880000  0.78250000  0.461 0.2569933321
C  C219  1  0.66010000  0.49120000  0.21750000  0.461 0.2569933321
C  C220  1  0.33990000  0.50880000  0.21750000  0.461 0.2569933321
C  C221  1  0.16010000  0.00880000  0.71750000  0.461 0.2569933321
C  C222  1  0.83990000  0.99120000  0.71750000  0.461 0.2569933321
C  C223  1  0.83990000  0.00880000  0.28250000  0.461 0.2569933321
C  C224  1  0.16010000  0.99120000  0.28250000  0.461 0.2569933321
C  C225  1  0.28990000  0.48680000  0.79350000  0.539 0.2407754112
C  C226  1  0.71010000  0.51320000  0.79350000  0.539 0.2407754112
C  C227  1  0.71010000  0.48680000  0.20650000  0.539 0.2407754112
C  C228  1  0.28990000  0.51320000  0.20650000  0.539 0.2407754112
C  C229  1  0.21010000  0.01320000  0.70650000  0.539 0.2407754112
C  C230  1  0.78990000  0.98680000  0.70650000  0.539 0.2407754112
C  C231  1  0.78990000  0.01320000  0.29350000  0.539 0.2407754112
C  C232  1  0.21010000  0.98680000  0.29350000  0.539 0.2407754112
O  O1  1  0.70371000  0.89932000  0.82674000  1.0 -0.5292640615
O  O2  1  0.29629000  0.10068000  0.82674000  1.0 -0.5292640615
O  O3  1  0.29629000  0.89932000  0.17326000  1.0 -0.5292640615
O  O4  1  0.70371000  0.10068000  0.17326000  1.0 -0.5292640615
O  O5  1  0.79629000  0.60068000  0.67326000  1.0 -0.5292640615
O  O6  1  0.20371000  0.39932000  0.67326000  1.0 -0.5292640615
O  O7  1  0.20371000  0.60068000  0.32674000  1.0 -0.5292640615
O  O8  1  0.79629000  0.39932000  0.32674000  1.0 -0.5292640615
O  O9  1  0.69949000  0.83932000  0.75664000  1.0 -0.5854756933
O  O10  1  0.30051000  0.16068000  0.75664000  1.0 -0.5854756933
O  O11  1  0.30051000  0.83932000  0.24336000  1.0 -0.5854756933
O  O12  1  0.69949000  0.16068000  0.24336000  1.0 -0.5854756933
O  O13  1  0.80051000  0.66068000  0.74336000  1.0 -0.5854756933
O  O14  1  0.19949000  0.33932000  0.74336000  1.0 -0.5854756933
O  O15  1  0.19949000  0.66068000  0.25664000  1.0 -0.5854756933
O  O16  1  0.80051000  0.33932000  0.25664000  1.0 -0.5854756933
O  O17  1  0.86773000  0.77367000  0.79671000  1.0 -0.5565785717
O  O18  1  0.13227000  0.22633000  0.79671000  1.0 -0.5565785717
O  O19  1  0.13227000  0.77367000  0.20329000  1.0 -0.5565785717
O  O20  1  0.86773000  0.22633000  0.20329000  1.0 -0.5565785717
O  O21  1  0.63227000  0.72633000  0.70329000  1.0 -0.5565785717
O  O22  1  0.36773000  0.27367000  0.70329000  1.0 -0.5565785717
O  O23  1  0.36773000  0.72633000  0.29671000  1.0 -0.5565785717
O  O24  1  0.63227000  0.27367000  0.29671000  1.0 -0.5565785717
O  O25  1  0.91707000  0.86279000  0.78334000  1.0 -0.5486046251
O  O26  1  0.08293000  0.13721000  0.78334000  1.0 -0.5486046251
O  O27  1  0.08293000  0.86279000  0.21666000  1.0 -0.5486046251
O  O28  1  0.91707000  0.13721000  0.21666000  1.0 -0.5486046251
O  O29  1  0.58293000  0.63721000  0.71666000  1.0 -0.5486046251
O  O30  1  0.41707000  0.36279000  0.71666000  1.0 -0.5486046251
O  O31  1  0.41707000  0.63721000  0.28334000  1.0 -0.5486046251
O  O32  1  0.58293000  0.36279000  0.28334000  1.0 -0.5486046251
O  O33  1  0.30539000  0.73190000  0.17635000  1.0 -0.5292640615
O  O34  1  0.69461000  0.26810000  0.17635000  1.0 -0.5292640615
O  O35  1  0.69461000  0.73190000  0.82365000  1.0 -0.5292640615
O  O36  1  0.30539000  0.26810000  0.82365000  1.0 -0.5292640615
O  O37  1  0.19461000  0.76810000  0.32365000  1.0 -0.5292640615
O  O38  1  0.80539000  0.23190000  0.32365000  1.0 -0.5292640615
O  O39  1  0.80539000  0.76810000  0.67635000  1.0 -0.5292640615
O  O40  1  0.19461000  0.23190000  0.67635000  1.0 -0.5292640615
O  O41  1  0.34146000  0.64152000  0.16103000  1.0 -0.5565785717
O  O42  1  0.65854000  0.35848000  0.16103000  1.0 -0.5565785717
O  O43  1  0.65854000  0.64152000  0.83897000  1.0 -0.5565785717
O  O44  1  0.34146000  0.35848000  0.83897000  1.0 -0.5565785717
O  O45  1  0.15854000  0.85848000  0.33897000  1.0 -0.5565785717
O  O46  1  0.84146000  0.14152000  0.33897000  1.0 -0.5565785717
O  O47  1  0.84146000  0.85848000  0.66103000  1.0 -0.5565785717
O  O48  1  0.15854000  0.14152000  0.66103000  1.0 -0.5565785717
O  O49  1  0.41010000  0.47390000  0.76860000  0.461 -0.0608959196
O  O50  1  0.58990000  0.52610000  0.76860000  0.461 -0.0608959196
O  O51  1  0.58990000  0.47390000  0.23140000  0.461 -0.0608959196
O  O52  1  0.41010000  0.52610000  0.23140000  0.461 -0.0608959196
O  O53  1  0.08990000  0.02610000  0.73140000  0.461 -0.0608959196
O  O54  1  0.91010000  0.97390000  0.73140000  0.461 -0.0608959196
O  O55  1  0.91010000  0.02610000  0.26860000  0.461 -0.0608959196
O  O56  1  0.08990000  0.97390000  0.26860000  0.461 -0.0608959196
O  O57  1  0.26530000  0.46320000  0.78020000  0.461 -0.0099523176
O  O58  1  0.73470000  0.53680000  0.78020000  0.461 -0.0099523176
O  O59  1  0.73470000  0.46320000  0.21980000  0.461 -0.0099523176
O  O60  1  0.26530000  0.53680000  0.21980000  0.461 -0.0099523176
O  O61  1  0.23470000  0.03680000  0.71980000  0.461 -0.0099523176
O  O62  1  0.76530000  0.96320000  0.71980000  0.461 -0.0099523176
O  O63  1  0.76530000  0.03680000  0.28020000  0.461 -0.0099523176
O  O64  1  0.23470000  0.96320000  0.28020000  0.461 -0.0099523176
O  O65  1  0.35990000  0.46340000  0.76930000  0.539 -0.0165204362
O  O66  1  0.64010000  0.53660000  0.76930000  0.539 -0.0165204362
O  O67  1  0.64010000  0.46340000  0.23070000  0.539 -0.0165204362
O  O68  1  0.35990000  0.53660000  0.23070000  0.539 -0.0165204362
O  O69  1  0.14010000  0.03660000  0.73070000  0.539 -0.0165204362
O  O70  1  0.85990000  0.96340000  0.73070000  0.539 -0.0165204362
O  O71  1  0.85990000  0.03660000  0.26930000  0.539 -0.0165204362
O  O72  1  0.14010000  0.96340000  0.26930000  0.539 -0.0165204362
O  O73  1  0.21940000  0.46100000  0.80040000  0.539 -0.0992430499
O  O74  1  0.78060000  0.53900000  0.80040000  0.539 -0.0992430499
O  O75  1  0.78060000  0.46100000  0.19960000  0.539 -0.0992430499
O  O76  1  0.21940000  0.53900000  0.19960000  0.539 -0.0992430499
O  O77  1  0.28060000  0.03900000  0.69960000  0.539 -0.0992430499
O  O78  1  0.71940000  0.96100000  0.69960000  0.539 -0.0992430499
O  O79  1  0.71940000  0.03900000  0.30040000  0.539 -0.0992430499
O  O80  1  0.28060000  0.96100000  0.30040000  0.539 -0.0992430499
