# DDEC6 charges by PACMAN v1.1 (https://github.com/mtap-research/PACMAN-charge/)
data_2017[Al][skl]3[FSR]9
_chemical_formula_sum              "Al16 H168 C272 O80"
_cell_length_a       19.086
_cell_length_b       19.086
_cell_length_c       36.593
_cell_angle_alpha    90
_cell_angle_beta     90
_cell_angle_gamma    90

_symmetry_space_group_name_H-M    "P 1"
_symmetry_Int_Tables_number       1

loop_
  _symmetry_equiv_pos_as_xyz
  'x, y, z'

loop_
  _atom_site_type_symbol
  _atom_site_label
  _atom_site_symmetry_multiplicity
  _atom_site_fract_x
  _atom_site_fract_y
  _atom_site_fract_z
  _atom_site_occupancy
  _atom_site_charge
Al  Al1       1.0  0.66414  0.33586  0.50000  1.0000 1.6393446735
Al  Al2       1.0  0.16414  0.16414  0.00000  1.0000 1.6393446735
Al  Al3       1.0  0.33586  0.66414  0.50000  1.0000 1.6393446735
Al  Al4       1.0  0.83586  0.83586  0.00000  1.0000 1.6393446735
Al  Al5       1.0  0.61893  0.38971  0.41694  1.0000 1.6346109124
Al  Al6       1.0  0.11029  0.11893  0.91694  1.0000 1.6393446735
Al  Al7       1.0  0.38107  0.61029  0.41694  1.0000 1.6346109124
Al  Al8       1.0  0.88971  0.88107  0.91694  1.0000 1.6346109124
Al  Al9       1.0  0.11893  0.11029  0.08306  1.0000 1.6393446735
Al  Al10      1.0  0.88107  0.88971  0.08306  1.0000 1.6346109124
Al  Al11      1.0  0.38971  0.61893  0.58306  1.0000 1.6346109124
Al  Al12      1.0  0.61029  0.38107  0.58306  1.0000 1.6346109124
Al  Al13      1.0  0.50000  0.50000  0.38493  1.0000 1.6472810717
Al  Al14      1.0  0.00000  0.00000  0.88493  1.0000 1.6472810717
Al  Al15      1.0  0.00000  0.00000  0.11507  1.0000 1.6472810717
Al  Al16      1.0  0.50000  0.50000  0.61507  1.0000 1.6472810717
H   H1        1.0  0.57590  0.50060  0.43770  1.0000 0.4218296899
H   H2        1.0  0.99940  0.07590  0.93770  1.0000 0.4218296899
H   H3        1.0  0.42410  0.49940  0.43770  1.0000 0.4218296899
H   H4        1.0  0.00060  0.92410  0.93770  1.0000 0.4218296899
H   H5        1.0  0.07590  0.99940  0.06230  1.0000 0.4218296899
H   H6        1.0  0.92410  0.00060  0.06230  1.0000 0.4218296899
H   H7        1.0  0.50060  0.57590  0.56230  1.0000 0.4218296899
H   H8        1.0  0.49940  0.42410  0.56230  1.0000 0.4218296899
H   H9        1.0  0.55580  0.37140  0.47210  1.0000 0.4218296899
H   H10       1.0  0.12860  0.05580  0.97210  1.0000 0.4218296899
H   H11       1.0  0.44420  0.62860  0.47210  1.0000 0.4218296899
H   H12       1.0  0.87140  0.94420  0.97210  1.0000 0.4218296899
H   H13       1.0  0.05580  0.12860  0.02790  1.0000 0.4218296899
H   H14       1.0  0.94420  0.87140  0.02790  1.0000 0.4218296899
H   H15       1.0  0.37140  0.55580  0.52790  1.0000 0.4218296899
H   H16       1.0  0.62860  0.44420  0.52790  1.0000 0.4218296899
H   H17       1.0  0.76780  0.62710  0.16520  1.0000 0.1127875499
H   H18       1.0  0.87290  0.26780  0.66520  1.0000 0.1127875499
H   H19       1.0  0.23220  0.37290  0.16520  1.0000 0.1127875499
H   H20       1.0  0.12710  0.73220  0.66520  1.0000 0.1127875499
H   H21       1.0  0.26780  0.87290  0.33480  1.0000 0.1127875499
H   H22       1.0  0.73220  0.12710  0.33480  1.0000 0.1127875499
H   H23       1.0  0.62710  0.76780  0.83480  1.0000 0.1127875499
H   H24       1.0  0.37290  0.23220  0.83480  1.0000 0.1127875499
H   H25       1.0  0.77160  0.63100  0.04140  1.0000 0.129794267
H   H26       1.0  0.86900  0.27160  0.54140  1.0000 0.129794267
H   H27       1.0  0.22840  0.36900  0.04140  1.0000 0.129794267
H   H28       1.0  0.13100  0.72840  0.54140  1.0000 0.129794267
H   H29       1.0  0.27160  0.86900  0.45860  1.0000 0.129794267
H   H30       1.0  0.72840  0.13100  0.45860  1.0000 0.129794267
H   H31       1.0  0.63100  0.77160  0.95860  1.0000 0.129794267
H   H32       1.0  0.36900  0.22840  0.95860  1.0000 0.129794267
H   H33       1.0  0.78210  0.73390  0.13580  1.0000 0.129794267
H   H34       1.0  0.76610  0.28210  0.63580  1.0000 0.129794267
H   H35       1.0  0.21790  0.26610  0.13580  1.0000 0.129794267
H   H36       1.0  0.23390  0.71790  0.63580  1.0000 0.129794267
H   H37       1.0  0.28210  0.76610  0.36420  1.0000 0.129794267
H   H38       1.0  0.71790  0.23390  0.36420  1.0000 0.129794267
H   H39       1.0  0.73390  0.78210  0.86420  1.0000 0.129794267
H   H40       1.0  0.26610  0.21790  0.86420  1.0000 0.129794267
H   H41       1.0  0.75970  0.52860  0.07130  1.0000 0.1127875499
H   H42       1.0  0.97140  0.25970  0.57130  1.0000 0.1127875499
H   H43       1.0  0.24030  0.47140  0.07130  1.0000 0.1127875499
H   H44       1.0  0.02860  0.74030  0.57130  1.0000 0.1127875499
H   H45       1.0  0.25970  0.97140  0.42870  1.0000 0.1127875499
H   H46       1.0  0.74030  0.02860  0.42870  1.0000 0.1127875499
H   H47       1.0  0.52860  0.75970  0.92870  1.0000 0.1127875499
H   H48       1.0  0.47140  0.24030  0.92870  1.0000 0.1127875499
H   H49       1.0  0.57740  0.50000  0.28120  1.0000 0.129794267
H   H50       1.0  0.00000  0.07740  0.78120  1.0000 0.129794267
H   H51       1.0  0.42260  0.50000  0.28120  1.0000 0.129794267
H   H52       1.0  0.00000  0.92260  0.78120  1.0000 0.129794267
H   H53       1.0  0.07740  0.00000  0.21880  1.0000 0.129794267
H   H54       1.0  0.92260  0.00000  0.21880  1.0000 0.129794267
H   H55       1.0  0.50000  0.57740  0.71880  1.0000 0.129794267
H   H56       1.0  0.50000  0.42260  0.71880  1.0000 0.129794267
H   H57       1.0  0.85420  0.15620  0.14470  1.0000 0.1400066126
H   H58       1.0  0.34380  0.35420  0.64470  1.0000 0.1400066126
H   H59       1.0  0.14580  0.84380  0.14470  1.0000 0.1400066126
H   H60       1.0  0.65620  0.64580  0.64470  1.0000 0.1400066126
H   H61       1.0  0.35420  0.34380  0.35530  1.0000 0.1400066126
H   H62       1.0  0.64580  0.65620  0.35530  1.0000 0.1400066126
H   H63       1.0  0.15620  0.85420  0.85530  1.0000 0.1400066126
H   H64       1.0  0.84380  0.14580  0.85530  1.0000 0.1400066126
H   H65       1.0  0.99830  0.28830  0.10240  1.0000 0.129794267
H   H66       1.0  0.21170  0.49830  0.60240  1.0000 0.129794267
H   H67       1.0  0.00170  0.71170  0.10240  1.0000 0.129794267
H   H68       1.0  0.78830  0.50170  0.60240  1.0000 0.129794267
H   H69       1.0  0.49830  0.21170  0.39760  1.0000 0.129794267
H   H70       1.0  0.50170  0.78830  0.39760  1.0000 0.129794267
H   H71       1.0  0.28830  0.99830  0.89760  1.0000 0.129794267
H   H72       1.0  0.71170  0.00170  0.89760  1.0000 0.129794267
H   H73       1.0  0.71660  0.35830  0.31320  1.0000 0.129794267
H   H74       1.0  0.14170  0.21660  0.81320  1.0000 0.129794267
H   H75       1.0  0.28340  0.64170  0.31320  1.0000 0.129794267
H   H76       1.0  0.85830  0.78340  0.81320  1.0000 0.129794267
H   H77       1.0  0.21660  0.14170  0.18680  1.0000 0.129794267
H   H78       1.0  0.78340  0.85830  0.18680  1.0000 0.129794267
H   H79       1.0  0.35830  0.71660  0.68680  1.0000 0.129794267
H   H80       1.0  0.64170  0.28340  0.68680  1.0000 0.129794267
H   H81       1.0  0.76850  0.37100  0.25700  1.0000 0.1176459184
H   H82       1.0  0.12900  0.26850  0.75700  1.0000 0.1176459184
H   H83       1.0  0.23150  0.62900  0.25700  1.0000 0.1176459184
H   H84       1.0  0.87100  0.73150  0.75700  1.0000 0.1176459184
H   H85       1.0  0.26850  0.12900  0.24300  1.0000 0.1176459184
H   H86       1.0  0.73150  0.87100  0.24300  1.0000 0.1176459184
H   H87       1.0  0.37100  0.76850  0.74300  1.0000 0.1176459184
H   H88       1.0  0.62900  0.23150  0.74300  1.0000 0.1176459184
H   H89       1.0  0.61990  0.49840  0.22460  1.0000 0.1176459184
H   H90       1.0  0.00160  0.11990  0.72460  1.0000 0.1176459184
H   H91       1.0  0.38010  0.50160  0.22460  1.0000 0.1176459184
H   H92       1.0  0.99840  0.88010  0.72460  1.0000 0.1176459184
H   H93       1.0  0.11990  0.00160  0.27540  1.0000 0.1176459184
H   H94       1.0  0.88010  0.99840  0.27540  1.0000 0.1176459184
H   H95       1.0  0.49840  0.61990  0.77540  1.0000 0.1176459184
H   H96       1.0  0.50160  0.38010  0.77540  1.0000 0.1176459184
H   H97       1.0  0.71290  0.53920  0.18480  1.0000 0.1127875499
H   H98       1.0  0.96080  0.21290  0.68480  1.0000 0.1127875499
H   H99       1.0  0.28710  0.46080  0.18480  1.0000 0.1127875499
H   H100      1.0  0.03920  0.78710  0.68480  1.0000 0.1127875499
H   H101      1.0  0.21290  0.96080  0.31520  1.0000 0.1127875499
H   H102      1.0  0.78710  0.03920  0.31520  1.0000 0.1127875499
H   H103      1.0  0.53920  0.71290  0.81520  1.0000 0.1127875499
H   H104      1.0  0.46080  0.28710  0.81520  1.0000 0.1127875499
H   H105      1.0  0.92510  0.37850  0.11620  1.0000 0.1176459184
H   H106      1.0  0.12150  0.42510  0.61620  1.0000 0.1176459184
H   H107      1.0  0.07490  0.62150  0.11620  1.0000 0.1176459184
H   H108      1.0  0.87850  0.57490  0.61620  1.0000 0.1176459184
H   H109      1.0  0.42510  0.12150  0.38380  1.0000 0.1176459184
H   H110      1.0  0.57490  0.87850  0.38380  1.0000 0.1176459184
H   H111      1.0  0.37850  0.92510  0.88380  1.0000 0.1176459184
H   H112      1.0  0.62150  0.07490  0.88380  1.0000 0.1176459184
H   H113      1.0  0.78670  0.24010  0.15450  1.0000 0.1176459184
H   H114      1.0  0.25990  0.28670  0.65450  1.0000 0.1176459184
H   H115      1.0  0.21330  0.75990  0.15450  1.0000 0.1176459184
H   H116      1.0  0.74010  0.71330  0.65450  1.0000 0.1176459184
H   H117      1.0  0.28670  0.25990  0.34550  1.0000 0.1176459184
H   H118      1.0  0.71330  0.74010  0.34550  1.0000 0.1176459184
H   H119      1.0  0.24010  0.78670  0.84550  1.0000 0.1176459184
H   H120      1.0  0.75990  0.21330  0.84550  1.0000 0.1176459184
H   H121      1.0  0.81770  0.44720  0.10590  1.0000 0.1127875499
H   H122      1.0  0.05280  0.31770  0.60590  1.0000 0.1127875499
H   H123      1.0  0.18230  0.55280  0.10590  1.0000 0.1127875499
H   H124      1.0  0.94720  0.68230  0.60590  1.0000 0.1127875499
H   H125      1.0  0.31770  0.05280  0.39410  1.0000 0.1127875499
H   H126      1.0  0.68230  0.94720  0.39410  1.0000 0.1127875499
H   H127      1.0  0.44720  0.81770  0.89410  1.0000 0.1127875499
H   H128      1.0  0.55280  0.18230  0.89410  1.0000 0.1127875499
H   H129      1.0  0.76990  0.33670  0.19850  1.0000 0.1127875499
H   H130      1.0  0.16330  0.26990  0.69850  1.0000 0.1127875499
H   H131      1.0  0.23010  0.66330  0.19850  1.0000 0.1127875499
H   H132      1.0  0.83670  0.73010  0.69850  1.0000 0.1127875499
H   H133      1.0  0.26990  0.16330  0.30150  1.0000 0.1127875499
H   H134      1.0  0.73010  0.83670  0.30150  1.0000 0.1127875499
H   H135      1.0  0.33670  0.76990  0.80150  1.0000 0.1127875499
H   H136      1.0  0.66330  0.23010  0.80150  1.0000 0.1127875499
H   H137      1.0  0.82170  0.49280  0.40160  1.0000 0.1456991495
H   H138      1.0  0.00720  0.32170  0.90160  1.0000 0.1456991495
H   H139      1.0  0.17830  0.50720  0.40160  1.0000 0.1456991495
H   H140      1.0  0.99280  0.67830  0.90160  1.0000 0.1456991495
H   H141      1.0  0.32170  0.00720  0.09840  1.0000 0.1456991495
H   H142      1.0  0.67830  0.99280  0.09840  1.0000 0.1456991495
H   H143      1.0  0.49280  0.82170  0.59840  1.0000 0.1456991495
H   H144      1.0  0.50720  0.17830  0.59840  1.0000 0.1456991495
H   H145      1.0  0.93790  0.50360  0.39590  1.0000 0.1176459184
H   H146      1.0  0.99640  0.43790  0.89590  1.0000 0.1176459184
H   H147      1.0  0.06210  0.49640  0.39590  1.0000 0.1176459184
H   H148      1.0  0.00360  0.56210  0.89590  1.0000 0.1176459184
H   H149      1.0  0.43790  0.99640  0.10410  1.0000 0.1176459184
H   H150      1.0  0.56210  0.00360  0.10410  1.0000 0.1176459184
H   H151      1.0  0.50360  0.93790  0.60410  1.0000 0.1176459184
H   H152      1.0  0.49640  0.06210  0.60410  1.0000 0.1176459184
H   H153      1.0  0.84620  0.41490  0.49700  1.0000 0.1400066126
H   H154      1.0  0.08510  0.34620  0.99700  1.0000 0.1400066126
H   H155      1.0  0.15380  0.58510  0.49700  1.0000 0.1400066126
H   H156      1.0  0.91490  0.65380  0.99700  1.0000 0.1400066126
H   H157      1.0  0.34620  0.08510  0.00300  1.0000 0.1400066126
H   H158      1.0  0.65380  0.91490  0.00300  1.0000 0.1400066126
H   H159      1.0  0.41490  0.84620  0.50300  1.0000 0.1400066126
H   H160      1.0  0.58510  0.15380  0.50300  1.0000 0.1400066126
H   H161      1.0  0.96540  0.45750  0.49760  1.0000 0.1127875499
H   H162      1.0  0.04250  0.46540  0.99760  1.0000 0.1127875499
H   H163      1.0  0.03460  0.54250  0.49760  1.0000 0.1127875499
H   H164      1.0  0.95750  0.53460  0.99760  1.0000 0.1127875499
H   H165      1.0  0.46540  0.04250  0.00240  1.0000 0.1127875499
H   H166      1.0  0.53460  0.95750  0.00240  1.0000 0.1127875499
H   H167      1.0  0.45750  0.96540  0.50240  1.0000 0.1127875499
H   H168      1.0  0.54250  0.03460  0.50240  1.0000 0.1127875499
C   C1        1.0  0.61410  0.43800  0.34114  1.0000 0.6214665981
C   C2        1.0  0.06200  0.11410  0.84114  1.0000 0.6214665981
C   C3        1.0  0.38590  0.56200  0.34114  1.0000 0.6214665981
C   C4        1.0  0.93800  0.88590  0.84114  1.0000 0.6214665981
C   C5        1.0  0.11410  0.06200  0.15886  1.0000 0.6214665981
C   C6        1.0  0.88590  0.93800  0.15886  1.0000 0.6214665981
C   C7        1.0  0.43800  0.61410  0.65886  1.0000 0.6214665981
C   C8        1.0  0.56200  0.38590  0.65886  1.0000 0.6214665981
C   C9        1.0  0.76930  0.62800  0.13976  1.0000 -0.1689170072
C   C10       1.0  0.87200  0.26930  0.63976  1.0000 -0.1689170072
C   C11       1.0  0.23070  0.37200  0.13976  1.0000 -0.1689170072
C   C12       1.0  0.12800  0.73070  0.63976  1.0000 -0.1689170072
C   C13       1.0  0.26930  0.87200  0.36024  1.0000 -0.1689170072
C   C14       1.0  0.73070  0.12800  0.36024  1.0000 -0.1689170072
C   C15       1.0  0.62800  0.76930  0.86024  1.0000 -0.1689170072
C   C16       1.0  0.37200  0.23070  0.86024  1.0000 -0.1689170072
C   C17       1.0  0.77310  0.63080  0.06676  1.0000 -0.1026935507
C   C18       1.0  0.86920  0.27310  0.56676  1.0000 -0.1026935507
C   C19       1.0  0.22690  0.36920  0.06676  1.0000 -0.1026935507
C   C20       1.0  0.13080  0.72690  0.56676  1.0000 -0.1026935507
C   C21       1.0  0.27310  0.86920  0.43324  1.0000 -0.1026935507
C   C22       1.0  0.72690  0.13080  0.43324  1.0000 -0.1026935507
C   C23       1.0  0.63080  0.77310  0.93324  1.0000 -0.1026935507
C   C24       1.0  0.36920  0.22690  0.93324  1.0000 -0.1026935507
C   C25       1.0  0.97910  0.15170  0.11065  1.0000 0.5973129483
C   C26       1.0  0.34830  0.47910  0.61065  1.0000 0.5973129483
C   C27       1.0  0.02090  0.84830  0.11065  1.0000 0.5973129483
C   C28       1.0  0.65170  0.52090  0.61065  1.0000 0.5973129483
C   C29       1.0  0.47910  0.34830  0.38935  1.0000 0.5973129483
C   C30       1.0  0.52090  0.65170  0.38935  1.0000 0.5973129483
C   C31       1.0  0.15170  0.97910  0.88935  1.0000 0.5973129483
C   C32       1.0  0.84830  0.02090  0.88935  1.0000 0.5973129483
C   C33       1.0  0.77920  0.69260  0.12244  1.0000 -0.0927287651
C   C34       1.0  0.80740  0.27920  0.62244  1.0000 -0.0927287651
C   C35       1.0  0.22080  0.30740  0.12244  1.0000 -0.0927287651
C   C36       1.0  0.19260  0.72080  0.62244  1.0000 -0.0927287651
C   C37       1.0  0.27920  0.80740  0.37756  1.0000 -0.0927287651
C   C38       1.0  0.72080  0.19260  0.37756  1.0000 -0.0927287651
C   C39       1.0  0.69260  0.77920  0.87756  1.0000 -0.0927287651
C   C40       1.0  0.30740  0.22080  0.87756  1.0000 -0.0927287651
C   C41       1.0  0.76420  0.56950  0.08495  1.0000 -0.1370375244
C   C42       1.0  0.93050  0.26420  0.58495  1.0000 -0.1370375244
C   C43       1.0  0.23580  0.43050  0.08495  1.0000 -0.1370375244
C   C44       1.0  0.06950  0.73580  0.58495  1.0000 -0.1370375244
C   C45       1.0  0.26420  0.93050  0.41505  1.0000 -0.1370375244
C   C46       1.0  0.73580  0.06950  0.41505  1.0000 -0.1370375244
C   C47       1.0  0.56950  0.76420  0.91505  1.0000 -0.1370375244
C   C48       1.0  0.43050  0.23580  0.91505  1.0000 -0.1370375244
C   C49       1.0  0.78430  0.69280  0.08533  1.0000 -0.0372032378
C   C50       1.0  0.80720  0.28430  0.58533  1.0000 -0.0372032378
C   C51       1.0  0.21570  0.30720  0.08533  1.0000 -0.0372032378
C   C52       1.0  0.19280  0.71570  0.58533  1.0000 -0.0372032378
C   C53       1.0  0.28430  0.80720  0.41467  1.0000 -0.0372032378
C   C54       1.0  0.71570  0.19280  0.41467  1.0000 -0.0372032378
C   C55       1.0  0.69280  0.78430  0.91467  1.0000 -0.0372032378
C   C56       1.0  0.30720  0.21570  0.91467  1.0000 -0.0372032378
C   C57       1.0  0.80610  0.76030  0.06733  1.0000 0.6214665981
C   C58       1.0  0.73970  0.30610  0.56733  1.0000 0.6214665981
C   C59       1.0  0.19390  0.23970  0.06733  1.0000 0.6214665981
C   C60       1.0  0.26030  0.69390  0.56733  1.0000 0.6214665981
C   C61       1.0  0.30610  0.73970  0.43267  1.0000 0.6214665981
C   C62       1.0  0.69390  0.26030  0.43267  1.0000 0.6214665981
C   C63       1.0  0.76030  0.80610  0.93267  1.0000 0.6214665981
C   C64       1.0  0.23970  0.19390  0.93267  1.0000 0.6214665981
C   C65       1.0  0.93510  0.20850  0.12016  1.0000 -0.1207456686
C   C66       1.0  0.29150  0.43510  0.62016  1.0000 -0.1207456686
C   C67       1.0  0.06490  0.79150  0.12016  1.0000 -0.1207456686
C   C68       1.0  0.70850  0.56490  0.62016  1.0000 -0.1207456686
C   C69       1.0  0.43510  0.29150  0.37984  1.0000 -0.1207456686
C   C70       1.0  0.56490  0.70850  0.37984  1.0000 -0.1207456686
C   C71       1.0  0.20850  0.93510  0.87984  1.0000 -0.1207456686
C   C72       1.0  0.79150  0.06490  0.87984  1.0000 -0.1207456686
C   C73       1.0  0.61560  0.47130  0.27609  1.0000 -0.1026935507
C   C74       1.0  0.02870  0.11560  0.77609  1.0000 -0.1026935507
C   C75       1.0  0.38440  0.52870  0.27609  1.0000 -0.1026935507
C   C76       1.0  0.97130  0.88440  0.77609  1.0000 -0.1026935507
C   C77       1.0  0.11560  0.02870  0.22391  1.0000 -0.1026935507
C   C78       1.0  0.88440  0.97130  0.22391  1.0000 -0.1026935507
C   C79       1.0  0.47130  0.61560  0.72391  1.0000 -0.1026935507
C   C80       1.0  0.52870  0.38440  0.72391  1.0000 -0.1026935507
C   C81       1.0  0.76160  0.56440  0.12084  1.0000 0.0679338436
C   C82       1.0  0.93560  0.26160  0.62084  1.0000 0.0679338436
C   C83       1.0  0.23840  0.43560  0.12084  1.0000 0.0679338436
C   C84       1.0  0.06440  0.73840  0.62084  1.0000 0.0679338436
C   C85       1.0  0.26160  0.93560  0.37916  1.0000 0.0679338436
C   C86       1.0  0.73840  0.06440  0.37916  1.0000 0.0679338436
C   C87       1.0  0.56440  0.76160  0.87916  1.0000 0.0679338436
C   C88       1.0  0.43560  0.23840  0.87916  1.0000 0.0679338436
C   C89       1.0  0.69840  0.43280  0.23374  1.0000 0.0609245259
C   C90       1.0  0.06720  0.19840  0.73374  1.0000 0.0609245259
C   C91       1.0  0.30160  0.56720  0.23374  1.0000 0.0609245259
C   C92       1.0  0.93280  0.80160  0.73374  1.0000 0.0609245259
C   C93       1.0  0.19840  0.06720  0.26626  1.0000 0.0609245259
C   C94       1.0  0.80160  0.93280  0.26626  1.0000 0.0609245259
C   C95       1.0  0.43280  0.69840  0.76626  1.0000 0.0609245259
C   C96       1.0  0.56720  0.30160  0.76626  1.0000 0.0609245259
C   C97       1.0  0.86880  0.20090  0.13796  1.0000 -0.0786564009
C   C98       1.0  0.29910  0.36880  0.63796  1.0000 -0.0786564009
C   C99       1.0  0.13120  0.79910  0.13796  1.0000 -0.0786564009
C   C100      1.0  0.70090  0.63120  0.63796  1.0000 -0.0786564009
C   C101      1.0  0.36880  0.29910  0.36204  1.0000 -0.0786564009
C   C102      1.0  0.63120  0.70090  0.36204  1.0000 -0.0786564009
C   C103      1.0  0.20090  0.86880  0.86204  1.0000 -0.0786564009
C   C104      1.0  0.79910  0.13120  0.86204  1.0000 -0.0786564009
C   C105      1.0  0.73290  0.43560  0.19811  1.0000 0.0896248991
C   C106      1.0  0.06440  0.23290  0.69811  1.0000 0.0896248991
C   C107      1.0  0.26710  0.56440  0.19811  1.0000 0.0896248991
C   C108      1.0  0.93560  0.76710  0.69811  1.0000 0.0896248991
C   C109      1.0  0.23290  0.06440  0.30189  1.0000 0.0896248991
C   C110      1.0  0.76710  0.93560  0.30189  1.0000 0.0896248991
C   C111      1.0  0.43560  0.73290  0.80189  1.0000 0.0896248991
C   C112      1.0  0.56440  0.26710  0.80189  1.0000 0.0896248991
C   C113      1.0  0.64310  0.43020  0.30413  1.0000 -0.0599201707
C   C114      1.0  0.06980  0.14310  0.80413  1.0000 -0.0599201707
C   C115      1.0  0.35690  0.56980  0.30413  1.0000 -0.0599201707
C   C116      1.0  0.93020  0.85690  0.80413  1.0000 -0.0599201707
C   C117      1.0  0.14310  0.06980  0.19587  1.0000 -0.0599201707
C   C118      1.0  0.85690  0.93020  0.19587  1.0000 -0.0599201707
C   C119      1.0  0.43020  0.64310  0.69587  1.0000 -0.0599201707
C   C120      1.0  0.56980  0.35690  0.69587  1.0000 -0.0599201707
C   C121      1.0  0.95510  0.27890  0.11311  1.0000 -0.0786564009
C   C122      1.0  0.22110  0.45510  0.61311  1.0000 -0.0786564009
C   C123      1.0  0.04490  0.72110  0.11311  1.0000 -0.0786564009
C   C124      1.0  0.77890  0.54490  0.61311  1.0000 -0.0786564009
C   C125      1.0  0.45510  0.22110  0.38689  1.0000 -0.0786564009
C   C126      1.0  0.54490  0.77890  0.38689  1.0000 -0.0786564009
C   C127      1.0  0.27890  0.95510  0.88689  1.0000 -0.0786564009
C   C128      1.0  0.72110  0.04490  0.88689  1.0000 -0.0786564009
C   C129      1.0  0.69830  0.38930  0.29609  1.0000 -0.0927287651
C   C130      1.0  0.11070  0.19830  0.79609  1.0000 -0.0927287651
C   C131      1.0  0.30170  0.61070  0.29609  1.0000 -0.0927287651
C   C132      1.0  0.88930  0.80170  0.79609  1.0000 -0.0927287651
C   C133      1.0  0.19830  0.11070  0.20391  1.0000 -0.0927287651
C   C134      1.0  0.80170  0.88930  0.20391  1.0000 -0.0927287651
C   C135      1.0  0.38930  0.69830  0.70391  1.0000 -0.0927287651
C   C136      1.0  0.61070  0.30170  0.70391  1.0000 -0.0927287651
C   C137      1.0  0.72690  0.39480  0.26159  1.0000 -0.1636927086
C   C138      1.0  0.10520  0.22690  0.76159  1.0000 -0.1636927086
C   C139      1.0  0.27310  0.60520  0.26159  1.0000 -0.1636927086
C   C140      1.0  0.89480  0.77310  0.76159  1.0000 -0.1636927086
C   C141      1.0  0.22690  0.10520  0.23841  1.0000 -0.1636927086
C   C142      1.0  0.77310  0.89480  0.23841  1.0000 -0.1636927086
C   C143      1.0  0.39480  0.72690  0.73841  1.0000 -0.1636927086
C   C144      1.0  0.60520  0.27310  0.73841  1.0000 -0.1636927086
C   C145      1.0  0.84600  0.32310  0.13912  1.0000 0.0679338436
C   C146      1.0  0.17690  0.34600  0.63912  1.0000 0.0679338436
C   C147      1.0  0.15400  0.67690  0.13912  1.0000 0.0679338436
C   C148      1.0  0.82310  0.65400  0.63912  1.0000 0.0679338436
C   C149      1.0  0.34600  0.17690  0.36088  1.0000 0.0679338436
C   C150      1.0  0.65400  0.82310  0.36088  1.0000 0.0679338436
C   C151      1.0  0.32310  0.84600  0.86088  1.0000 0.0679338436
C   C152      1.0  0.67690  0.15400  0.86088  1.0000 0.0679338436
C   C153      1.0  0.64140  0.47130  0.24255  1.0000 -0.1331269531
C   C154      1.0  0.02870  0.14140  0.74255  1.0000 -0.1331269531
C   C155      1.0  0.35860  0.52870  0.24255  1.0000 -0.1331269531
C   C156      1.0  0.97130  0.85860  0.74255  1.0000 -0.1331269531
C   C157      1.0  0.14140  0.02870  0.25745  1.0000 -0.1331269531
C   C158      1.0  0.85860  0.97130  0.25745  1.0000 -0.1331269531
C   C159      1.0  0.47130  0.64140  0.75745  1.0000 -0.1331269531
C   C160      1.0  0.52870  0.35860  0.75745  1.0000 -0.1331269531
C   C161      1.0  0.73180  0.49820  0.17532  1.0000 -0.2004638662
C   C162      1.0  0.00180  0.23180  0.67532  1.0000 -0.2004638662
C   C163      1.0  0.26820  0.50180  0.17532  1.0000 -0.2004638662
C   C164      1.0  0.99820  0.76820  0.67532  1.0000 -0.2004638662
C   C165      1.0  0.23180  0.00180  0.32468  1.0000 -0.2004638662
C   C166      1.0  0.76820  0.99820  0.32468  1.0000 -0.2004638662
C   C167      1.0  0.49820  0.73180  0.82468  1.0000 -0.2004638662
C   C168      1.0  0.50180  0.26820  0.82468  1.0000 -0.2004638662
C   C169      1.0  0.91120  0.33310  0.12189  1.0000 -0.1505592329
C   C170      1.0  0.16690  0.41120  0.62189  1.0000 -0.1505592329
C   C171      1.0  0.08880  0.66690  0.12189  1.0000 -0.1505592329
C   C172      1.0  0.83310  0.58880  0.62189  1.0000 -0.1505592329
C   C173      1.0  0.41120  0.16690  0.37811  1.0000 -0.1505592329
C   C174      1.0  0.58880  0.83310  0.37811  1.0000 -0.1505592329
C   C175      1.0  0.33310  0.91120  0.87811  1.0000 -0.1505592329
C   C176      1.0  0.66690  0.08880  0.87811  1.0000 -0.1505592329
C   C177      1.0  0.80660  0.38270  0.15200  1.0000 0.0811956574
C   C178      1.0  0.11730  0.30660  0.65200  1.0000 0.0811956574
C   C179      1.0  0.19340  0.61730  0.15200  1.0000 0.0811956574
C   C180      1.0  0.88270  0.69340  0.65200  1.0000 0.0811956574
C   C181      1.0  0.30660  0.11730  0.34800  1.0000 0.0811956574
C   C182      1.0  0.69340  0.88270  0.34800  1.0000 0.0811956574
C   C183      1.0  0.38270  0.80660  0.84800  1.0000 0.0811956574
C   C184      1.0  0.61730  0.19340  0.84800  1.0000 0.0811956574
C   C185      1.0  0.83040  0.25060  0.14471  1.0000 -0.1207456686
C   C186      1.0  0.24940  0.33040  0.64471  1.0000 -0.1207456686
C   C187      1.0  0.16960  0.74940  0.14471  1.0000 -0.1207456686
C   C188      1.0  0.75060  0.66960  0.64471  1.0000 -0.1207456686
C   C189      1.0  0.33040  0.24940  0.35529  1.0000 -0.1207456686
C   C190      1.0  0.66960  0.75060  0.35529  1.0000 -0.1207456686
C   C191      1.0  0.25060  0.83040  0.85529  1.0000 -0.1207456686
C   C192      1.0  0.74940  0.16960  0.85529  1.0000 -0.1207456686
C   C193      1.0  0.75700  0.49890  0.14143  1.0000 0.0811956574
C   C194      1.0  0.00110  0.25700  0.64143  1.0000 0.0811956574
C   C195      1.0  0.24300  0.50110  0.14143  1.0000 0.0811956574
C   C196      1.0  0.99890  0.74300  0.64143  1.0000 0.0811956574
C   C197      1.0  0.25700  0.00110  0.35857  1.0000 0.0811956574
C   C198      1.0  0.74300  0.99890  0.35857  1.0000 0.0811956574
C   C199      1.0  0.49890  0.75700  0.85857  1.0000 0.0811956574
C   C200      1.0  0.50110  0.24300  0.85857  1.0000 0.0811956574
C   C201      1.0  0.79690  0.44480  0.12885  1.0000 -0.2176099731
C   C202      1.0  0.05520  0.29690  0.62885  1.0000 -0.2176099731
C   C203      1.0  0.20310  0.55520  0.12885  1.0000 -0.2176099731
C   C204      1.0  0.94480  0.70310  0.62885  1.0000 -0.2176099731
C   C205      1.0  0.29690  0.05520  0.37115  1.0000 -0.2176099731
C   C206      1.0  0.70310  0.94480  0.37115  1.0000 -0.2176099731
C   C207      1.0  0.44480  0.79690  0.87115  1.0000 -0.2176099731
C   C208      1.0  0.55520  0.20310  0.87115  1.0000 -0.2176099731
C   C209      1.0  0.76960  0.37830  0.18521  1.0000 -0.2176099731
C   C210      1.0  0.12170  0.26960  0.68521  1.0000 -0.2176099731
C   C211      1.0  0.23040  0.62170  0.18521  1.0000 -0.2176099731
C   C212      1.0  0.87830  0.73040  0.68521  1.0000 -0.2176099731
C   C213      1.0  0.26960  0.12170  0.31479  1.0000 -0.2176099731
C   C214      1.0  0.73040  0.87830  0.31479  1.0000 -0.2176099731
C   C215      1.0  0.37830  0.76960  0.81479  1.0000 -0.2176099731
C   C216      1.0  0.62170  0.23040  0.81479  1.0000 -0.2176099731
C   C217      1.0  0.74810  0.42890  0.45410  1.0000 0.6349162967
C   C218      1.0  0.07110  0.24810  0.95410  1.0000 0.6349162967
C   C219      1.0  0.25190  0.57110  0.45410  1.0000 0.6349162967
C   C220      1.0  0.92890  0.75190  0.95410  1.0000 0.6349162967
C   C221      1.0  0.24810  0.07110  0.04590  1.0000 0.6349162967
C   C222      1.0  0.75190  0.92890  0.04590  1.0000 0.6349162967
C   C223      1.0  0.42890  0.74810  0.54590  1.0000 0.6349162967
C   C224      1.0  0.57110  0.25190  0.54590  1.0000 0.6349162967
C   C225      1.0  0.85050  0.48070  0.42107  1.0000 -0.1026935507
C   C226      1.0  0.01930  0.35050  0.92107  1.0000 -0.1026935507
C   C227      1.0  0.14950  0.51930  0.42107  1.0000 -0.1026935507
C   C228      1.0  0.98070  0.64950  0.92107  1.0000 -0.1026935507
C   C229      1.0  0.35050  0.01930  0.07893  1.0000 -0.1026935507
C   C230      1.0  0.64950  0.98070  0.07893  1.0000 -0.1026935507
C   C231      1.0  0.48070  0.85050  0.57893  1.0000 -0.1026935507
C   C232      1.0  0.51930  0.14950  0.57893  1.0000 -0.1026935507
C   C233      1.0  0.82240  0.45050  0.44932  1.0000 -0.0503227016
C   C234      1.0  0.04950  0.32240  0.94932  1.0000 -0.0503227016
C   C235      1.0  0.17760  0.54950  0.44932  1.0000 -0.0503227016
C   C236      1.0  0.95050  0.67760  0.94932  1.0000 -0.0503227016
C   C237      1.0  0.32240  0.04950  0.05068  1.0000 -0.0503227016
C   C238      1.0  0.67760  0.95050  0.05068  1.0000 -0.0503227016
C   C239      1.0  0.45050  0.82240  0.55068  1.0000 -0.0503227016
C   C240      1.0  0.54950  0.17760  0.55068  1.0000 -0.0503227016
C   C241      1.0  0.91870  0.49500  0.41883  1.0000 -0.1505592329
C   C242      1.0  0.00500  0.41870  0.91883  1.0000 -0.1505592329
C   C243      1.0  0.08130  0.50500  0.41883  1.0000 -0.1505592329
C   C244      1.0  0.99500  0.58130  0.91883  1.0000 -0.1505592329
C   C245      1.0  0.41870  0.00500  0.08117  1.0000 -0.1505592329
C   C246      1.0  0.58130  0.99500  0.08117  1.0000 -0.1505592329
C   C247      1.0  0.49500  0.91870  0.58117  1.0000 -0.1505592329
C   C248      1.0  0.50500  0.08130  0.58117  1.0000 -0.1505592329
C   C249      1.0  0.86340  0.43930  0.47696  1.0000 -0.1026935507
C   C250      1.0  0.06070  0.36340  0.97696  1.0000 -0.1026935507
C   C251      1.0  0.13660  0.56070  0.47696  1.0000 -0.1026935507
C   C252      1.0  0.93930  0.63660  0.97696  1.0000 -0.1026935507
C   C253      1.0  0.36340  0.06070  0.02304  1.0000 -0.1026935507
C   C254      1.0  0.63660  0.93930  0.02304  1.0000 -0.1026935507
C   C255      1.0  0.43930  0.86340  0.52304  1.0000 -0.1026935507
C   C256      1.0  0.56070  0.13660  0.52304  1.0000 -0.1026935507
C   C257      1.0  0.95930  0.49730  0.44701  1.0000 0.0811956574
C   C258      1.0  0.00270  0.45930  0.94701  1.0000 0.0811956574
C   C259      1.0  0.04070  0.50270  0.44701  1.0000 0.0811956574
C   C260      1.0  0.99730  0.54070  0.94701  1.0000 0.0811956574
C   C261      1.0  0.45930  0.00270  0.05299  1.0000 0.0811956574
C   C262      1.0  0.54070  0.99730  0.05299  1.0000 0.0811956574
C   C263      1.0  0.49730  0.95930  0.55299  1.0000 0.0811956574
C   C264      1.0  0.50270  0.04070  0.55299  1.0000 0.0811956574
C   C265      1.0  0.93650  0.46420  0.47741  1.0000 -0.176892904
C   C266      1.0  0.03580  0.43650  0.97741  1.0000 -0.176892904
C   C267      1.0  0.06350  0.53580  0.47741  1.0000 -0.176892904
C   C268      1.0  0.96420  0.56350  0.97741  1.0000 -0.176892904
C   C269      1.0  0.43650  0.03580  0.02259  1.0000 -0.176892904
C   C270      1.0  0.56350  0.96420  0.02259  1.0000 -0.176892904
C   C271      1.0  0.46420  0.93650  0.52259  1.0000 -0.176892904
C   C272      1.0  0.53580  0.06350  0.52259  1.0000 -0.176892904
O   O1        1.0  0.56732  0.47070  0.41811  1.0000 -1.0107515244
O   O2        1.0  0.02930  0.06732  0.91811  1.0000 -1.0107515244
O   O3        1.0  0.43268  0.52930  0.41811  1.0000 -1.0107515244
O   O4        1.0  0.97070  0.93268  0.91811  1.0000 -1.0107515244
O   O5        1.0  0.06732  0.02930  0.08189  1.0000 -1.0107515244
O   O6        1.0  0.93268  0.97070  0.08189  1.0000 -1.0107515244
O   O7        1.0  0.47070  0.56732  0.58189  1.0000 -1.0107515244
O   O8        1.0  0.52930  0.43268  0.58189  1.0000 -1.0107515244
O   O9        1.0  0.64272  0.40169  0.36586  1.0000 -0.5631425568
O   O10       1.0  0.09831  0.14272  0.86586  1.0000 -0.5631425568
O   O11       1.0  0.35728  0.59831  0.36586  1.0000 -0.5631425568
O   O12       1.0  0.90169  0.85728  0.86586  1.0000 -0.5631425568
O   O13       1.0  0.14272  0.09831  0.13414  1.0000 -0.5631425568
O   O14       1.0  0.85728  0.90169  0.13414  1.0000 -0.5631425568
O   O15       1.0  0.40169  0.64272  0.63414  1.0000 -0.5631425568
O   O16       1.0  0.59831  0.35728  0.63414  1.0000 -0.5631425568
O   O17       1.0  0.60209  0.36683  0.46454  1.0000 -1.0107515244
O   O18       1.0  0.13317  0.10209  0.96454  1.0000 -1.0107515244
O   O19       1.0  0.39791  0.63317  0.46454  1.0000 -1.0107515244
O   O20       1.0  0.86683  0.89791  0.96454  1.0000 -1.0107515244
O   O21       1.0  0.10209  0.13317  0.03546  1.0000 -1.0107515244
O   O22       1.0  0.89791  0.86683  0.03546  1.0000 -1.0107515244
O   O23       1.0  0.36683  0.60209  0.53546  1.0000 -1.0107515244
O   O24       1.0  0.63317  0.39791  0.53546  1.0000 -1.0107515244
O   O25       1.0  0.55960  0.47340  0.34503  1.0000 -0.5631425568
O   O26       1.0  0.02660  0.05960  0.84503  1.0000 -0.5631425568
O   O27       1.0  0.44040  0.52660  0.34503  1.0000 -0.5631425568
O   O28       1.0  0.97340  0.94040  0.84503  1.0000 -0.5631425568
O   O29       1.0  0.05960  0.02660  0.15497  1.0000 -0.5631425568
O   O30       1.0  0.94040  0.97340  0.15497  1.0000 -0.5631425568
O   O31       1.0  0.47340  0.55960  0.65497  1.0000 -0.5631425568
O   O32       1.0  0.52660  0.44040  0.65497  1.0000 -0.5631425568
O   O33       1.0  0.82504  0.80824  0.08803  1.0000 -0.5631425568
O   O34       1.0  0.69176  0.32504  0.58803  1.0000 -0.5631425568
O   O35       1.0  0.17496  0.19176  0.08803  1.0000 -0.5631425568
O   O36       1.0  0.30824  0.67496  0.58803  1.0000 -0.5631425568
O   O37       1.0  0.32504  0.69176  0.41197  1.0000 -0.5631425568
O   O38       1.0  0.67496  0.30824  0.41197  1.0000 -0.5631425568
O   O39       1.0  0.80824  0.82504  0.91197  1.0000 -0.5631425568
O   O40       1.0  0.19176  0.17496  0.91197  1.0000 -0.5631425568
O   O41       1.0  0.73326  0.39602  0.48133  1.0000 -0.5355114727
O   O42       1.0  0.10398  0.23326  0.98133  1.0000 -0.5355114727
O   O43       1.0  0.26674  0.60398  0.48133  1.0000 -0.5355114727
O   O44       1.0  0.89602  0.76674  0.98133  1.0000 -0.5355114727
O   O45       1.0  0.23326  0.10398  0.01867  1.0000 -0.5355114727
O   O46       1.0  0.76674  0.89602  0.01867  1.0000 -0.5355114727
O   O47       1.0  0.39602  0.73326  0.51867  1.0000 -0.5355114727
O   O48       1.0  0.60398  0.26674  0.51867  1.0000 -0.5355114727
O   O49       1.0  0.04342  0.16619  0.09822  1.0000 -0.630929151
O   O50       1.0  0.33381  0.54342  0.59822  1.0000 -0.630929151
O   O51       1.0  0.95658  0.83381  0.09822  1.0000 -0.630929151
O   O52       1.0  0.66619  0.45658  0.59822  1.0000 -0.630929151
O   O53       1.0  0.54342  0.33381  0.40178  1.0000 -0.630929151
O   O54       1.0  0.45658  0.66619  0.40178  1.0000 -0.630929151
O   O55       1.0  0.16619  0.04342  0.90178  1.0000 -0.630929151
O   O56       1.0  0.83381  0.95658  0.90178  1.0000 -0.630929151
O   O57       1.0  0.95968  0.09059  0.11672  1.0000 -0.5686730532
O   O58       1.0  0.40941  0.45968  0.61672  1.0000 -0.5686730532
O   O59       1.0  0.04032  0.90941  0.11672  1.0000 -0.5686730532
O   O60       1.0  0.59059  0.54032  0.61672  1.0000 -0.5686730532
O   O61       1.0  0.45968  0.40941  0.38328  1.0000 -0.5686730532
O   O62       1.0  0.54032  0.59059  0.38328  1.0000 -0.5686730532
O   O63       1.0  0.09059  0.95968  0.88328  1.0000 -0.5686730532
O   O64       1.0  0.90941  0.04032  0.88328  1.0000 -0.5686730532
O   O65       1.0  0.70560  0.43820  0.42781  1.0000 -0.5686730532
O   O66       1.0  0.06180  0.20560  0.92781  1.0000 -0.5686730532
O   O67       1.0  0.29440  0.56180  0.42781  1.0000 -0.5686730532
O   O68       1.0  0.93820  0.79440  0.92781  1.0000 -0.5686730532
O   O69       1.0  0.20560  0.06180  0.07219  1.0000 -0.5686730532
O   O70       1.0  0.79440  0.93820  0.07219  1.0000 -0.5686730532
O   O71       1.0  0.43820  0.70560  0.57219  1.0000 -0.5686730532
O   O72       1.0  0.56180  0.29440  0.57219  1.0000 -0.5686730532
O   O73       1.0  0.80180  0.76159  0.03197  1.0000 -0.5939029245
O   O74       1.0  0.73841  0.30180  0.53197  1.0000 -0.5939029245
O   O75       1.0  0.19820  0.23841  0.03197  1.0000 -0.5939029245
O   O76       1.0  0.26159  0.69820  0.53197  1.0000 -0.5939029245
O   O77       1.0  0.30180  0.73841  0.46803  1.0000 -0.5939029245
O   O78       1.0  0.69820  0.26159  0.46803  1.0000 -0.5939029245
O   O79       1.0  0.76159  0.80180  0.96803  1.0000 -0.5939029245
O   O80       1.0  0.23841  0.19820  0.96803  1.0000 -0.5939029245
