# DDEC6 charges by PACMAN v1.1 (https://github.com/mtap-research/PACMAN-charge/)
data_2024[Zn][crb]3[FSR]14
_chemical_formula_sum              "Zn16 H96 C96 N64"
_cell_length_a       9.63356
_cell_length_b       24.0923
_cell_length_c       24.4097
_cell_angle_alpha    90
_cell_angle_beta     90
_cell_angle_gamma    90

_symmetry_space_group_name_H-M    "P 1"
_symmetry_Int_Tables_number       1

loop_
  _symmetry_equiv_pos_as_xyz
  'x, y, z'

loop_
  _atom_site_type_symbol
  _atom_site_label
  _atom_site_symmetry_multiplicity
  _atom_site_fract_x
  _atom_site_fract_y
  _atom_site_fract_z
  _atom_site_occupancy
  _atom_site_charge
Zn  Zn1       1.0  0.01228  0.17442  0.50141  1.0000 0.6186176362
Zn  Zn2       1.0  0.51228  0.32558  0.49859  1.0000 0.6186176362
Zn  Zn3       1.0  0.98772  0.67442  0.99859  1.0000 0.6186176362
Zn  Zn4       1.0  0.48772  0.82558  0.00141  1.0000 0.6186176362
Zn  Zn5       1.0  0.98772  0.82558  0.49859  1.0000 0.6186176362
Zn  Zn6       1.0  0.48772  0.67442  0.50141  1.0000 0.6186176362
Zn  Zn7       1.0  0.01228  0.32558  0.00141  1.0000 0.6186176362
Zn  Zn8       1.0  0.51228  0.17442  0.99859  1.0000 0.6186176362
Zn  Zn9       1.0  0.00268  0.00175  0.32394  1.0000 0.6186176362
Zn  Zn10      1.0  0.50268  0.49825  0.67606  1.0000 0.6186176362
Zn  Zn11      1.0  0.99732  0.50175  0.17606  1.0000 0.6186176362
Zn  Zn12      1.0  0.49732  0.99825  0.82394  1.0000 0.6186176362
Zn  Zn13      1.0  0.99732  0.99825  0.67606  1.0000 0.6186176362
Zn  Zn14      1.0  0.49732  0.50175  0.32394  1.0000 0.6186176362
Zn  Zn15      1.0  0.00268  0.49825  0.82394  1.0000 0.6186176362
Zn  Zn16      1.0  0.50268  0.00175  0.17606  1.0000 0.6186176362
H   H1        1.0  0.75450  0.33710  0.40870  1.0000 0.1005973574
H   H2        1.0  0.25450  0.16290  0.59130  1.0000 0.1005973574
H   H3        1.0  0.24550  0.83710  0.09130  1.0000 0.1005973574
H   H4        1.0  0.74550  0.66290  0.90870  1.0000 0.1005973574
H   H5        1.0  0.24550  0.66290  0.59130  1.0000 0.1005973574
H   H6        1.0  0.74550  0.83710  0.40870  1.0000 0.1005973574
H   H7        1.0  0.75450  0.16290  0.90870  1.0000 0.1005973574
H   H8        1.0  0.25450  0.33710  0.09130  1.0000 0.1005973574
H   H9        1.0  0.49010  0.94580  0.29320  1.0000 0.1005973574
H   H10       1.0  0.99010  0.55420  0.70680  1.0000 0.1005973574
H   H11       1.0  0.50990  0.44580  0.20680  1.0000 0.1005973574
H   H12       1.0  0.00990  0.05420  0.79320  1.0000 0.1005973574
H   H13       1.0  0.50990  0.05420  0.70680  1.0000 0.1005973574
H   H14       1.0  0.00990  0.44580  0.29320  1.0000 0.1005973574
H   H15       1.0  0.49010  0.55420  0.79320  1.0000 0.1005973574
H   H16       1.0  0.99010  0.94580  0.20680  1.0000 0.1005973574
H   H17       1.0  0.96290  0.05180  0.44440  1.0000 0.0745122107
H   H18       1.0  0.46290  0.44820  0.55560  1.0000 0.0745122107
H   H19       1.0  0.03710  0.55180  0.05560  1.0000 0.0745122107
H   H20       1.0  0.53710  0.94820  0.94440  1.0000 0.0745122107
H   H21       1.0  0.03710  0.94820  0.55560  1.0000 0.0745122107
H   H22       1.0  0.53710  0.55180  0.44440  1.0000 0.0745122107
H   H23       1.0  0.96290  0.44820  0.94440  1.0000 0.0745122107
H   H24       1.0  0.46290  0.05180  0.05560  1.0000 0.0745122107
H   H25       1.0  0.20400  0.81950  0.39860  1.0000 0.1005973574
H   H26       1.0  0.70400  0.68050  0.60140  1.0000 0.1005973574
H   H27       1.0  0.79600  0.31950  0.10140  1.0000 0.1005973574
H   H28       1.0  0.29600  0.18050  0.89860  1.0000 0.1005973574
H   H29       1.0  0.79600  0.18050  0.60140  1.0000 0.1005973574
H   H30       1.0  0.29600  0.31950  0.39860  1.0000 0.1005973574
H   H31       1.0  0.20400  0.68050  0.89860  1.0000 0.1005973574
H   H32       1.0  0.70400  0.81950  0.10140  1.0000 0.1005973574
H   H33       1.0  0.14000  0.12110  0.30460  1.0000 0.1005973574
H   H34       1.0  0.64000  0.37890  0.69540  1.0000 0.1005973574
H   H35       1.0  0.86000  0.62110  0.19540  1.0000 0.1005973574
H   H36       1.0  0.36000  0.87890  0.80460  1.0000 0.1005973574
H   H37       1.0  0.86000  0.87890  0.69540  1.0000 0.1005973574
H   H38       1.0  0.36000  0.62110  0.30460  1.0000 0.1005973574
H   H39       1.0  0.14000  0.37890  0.80460  1.0000 0.1005973574
H   H40       1.0  0.64000  0.12110  0.19540  1.0000 0.1005973574
H   H41       1.0  0.14600  0.19740  0.38960  1.0000 0.1005973574
H   H42       1.0  0.64600  0.30260  0.61040  1.0000 0.1005973574
H   H43       1.0  0.85400  0.69740  0.11040  1.0000 0.1005973574
H   H44       1.0  0.35400  0.80260  0.88960  1.0000 0.1005973574
H   H45       1.0  0.85400  0.80260  0.61040  1.0000 0.1005973574
H   H46       1.0  0.35400  0.69740  0.38960  1.0000 0.1005973574
H   H47       1.0  0.14600  0.30260  0.88960  1.0000 0.1005973574
H   H48       1.0  0.64600  0.19740  0.11040  1.0000 0.1005973574
H   H49       1.0  0.91970  0.94180  0.43970  1.0000 0.0745122107
H   H50       1.0  0.41970  0.55820  0.56030  1.0000 0.0745122107
H   H51       1.0  0.08030  0.44180  0.06030  1.0000 0.0745122107
H   H52       1.0  0.58030  0.05820  0.93970  1.0000 0.0745122107
H   H53       1.0  0.08030  0.05820  0.56030  1.0000 0.0745122107
H   H54       1.0  0.58030  0.44180  0.43970  1.0000 0.0745122107
H   H55       1.0  0.91970  0.55820  0.93970  1.0000 0.0745122107
H   H56       1.0  0.41970  0.94180  0.06030  1.0000 0.0745122107
H   H57       1.0  0.19800  0.89700  0.31800  1.0000 0.1058788793
H   H58       1.0  0.69800  0.60300  0.68200  1.0000 0.1058788793
H   H59       1.0  0.80200  0.39700  0.18200  1.0000 0.1058788793
H   H60       1.0  0.30200  0.10300  0.81800  1.0000 0.1058788793
H   H61       1.0  0.80200  0.10300  0.68200  1.0000 0.1058788793
H   H62       1.0  0.30200  0.39700  0.31800  1.0000 0.1058788793
H   H63       1.0  0.19800  0.60300  0.81800  1.0000 0.1058788793
H   H64       1.0  0.69800  0.89700  0.18200  1.0000 0.1058788793
H   H65       1.0  0.71330  0.22580  0.53820  1.0000 0.0523357773
H   H66       1.0  0.21330  0.27420  0.46180  1.0000 0.0523357773
H   H67       1.0  0.28670  0.72580  0.96180  1.0000 0.0523357773
H   H68       1.0  0.78670  0.77420  0.03820  1.0000 0.0523357773
H   H69       1.0  0.28670  0.77420  0.46180  1.0000 0.0523357773
H   H70       1.0  0.78670  0.72580  0.53820  1.0000 0.0523357773
H   H71       1.0  0.71330  0.27420  0.03820  1.0000 0.0523357773
H   H72       1.0  0.21330  0.22580  0.96180  1.0000 0.0523357773
H   H73       1.0  0.98500  0.27040  0.41160  1.0000 0.0918088974
H   H74       1.0  0.48500  0.22960  0.58840  1.0000 0.0918088974
H   H75       1.0  0.01500  0.77040  0.08840  1.0000 0.0918088974
H   H76       1.0  0.51500  0.72960  0.91160  1.0000 0.0918088974
H   H77       1.0  0.01500  0.72960  0.58840  1.0000 0.0918088974
H   H78       1.0  0.51500  0.77040  0.41160  1.0000 0.0918088974
H   H79       1.0  0.98500  0.22960  0.91160  1.0000 0.0918088974
H   H80       1.0  0.48500  0.27040  0.08840  1.0000 0.0918088974
H   H81       1.0  0.71570  0.94890  0.36330  1.0000 0.1005973574
H   H82       1.0  0.21570  0.55110  0.63670  1.0000 0.1005973574
H   H83       1.0  0.28430  0.44890  0.13670  1.0000 0.1005973574
H   H84       1.0  0.78430  0.05110  0.86330  1.0000 0.1005973574
H   H85       1.0  0.28430  0.05110  0.63670  1.0000 0.1005973574
H   H86       1.0  0.78430  0.44890  0.36330  1.0000 0.1005973574
H   H87       1.0  0.71570  0.55110  0.86330  1.0000 0.1005973574
H   H88       1.0  0.21570  0.94890  0.13670  1.0000 0.1005973574
H   H89       1.0  0.80710  0.03750  0.22150  1.0000 0.0795284333
H   H90       1.0  0.30710  0.46250  0.77850  1.0000 0.0795284333
H   H91       1.0  0.19290  0.53750  0.27850  1.0000 0.0795284333
H   H92       1.0  0.69290  0.96250  0.72150  1.0000 0.0795284333
H   H93       1.0  0.19290  0.96250  0.77850  1.0000 0.0795284333
H   H94       1.0  0.69290  0.53750  0.22150  1.0000 0.0795284333
H   H95       1.0  0.80710  0.46250  0.72150  1.0000 0.0795284333
H   H96       1.0  0.30710  0.03750  0.27850  1.0000 0.0795284333
C   C1        1.0  0.78050  0.30480  0.43655  1.0000 -0.061117784
C   C2        1.0  0.28050  0.19520  0.56345  1.0000 -0.061117784
C   C3        1.0  0.21950  0.80480  0.06345  1.0000 -0.061117784
C   C4        1.0  0.71950  0.69520  0.93655  1.0000 -0.061117784
C   C5        1.0  0.21950  0.69520  0.56345  1.0000 -0.061117784
C   C6        1.0  0.71950  0.80480  0.43655  1.0000 -0.061117784
C   C7        1.0  0.78050  0.19520  0.93655  1.0000 -0.061117784
C   C8        1.0  0.28050  0.30480  0.06345  1.0000 -0.061117784
C   C9        1.0  0.58858  0.96600  0.28956  1.0000 -0.0698805121
C   C10       1.0  0.08858  0.53400  0.71044  1.0000 -0.0698805121
C   C11       1.0  0.41142  0.46600  0.21044  1.0000 -0.0698805121
C   C12       1.0  0.91142  0.03400  0.78956  1.0000 -0.0698805121
C   C13       1.0  0.41142  0.03400  0.71044  1.0000 -0.0698805121
C   C14       1.0  0.91142  0.46600  0.28956  1.0000 -0.0698805121
C   C15       1.0  0.58858  0.53400  0.78956  1.0000 -0.0698805121
C   C16       1.0  0.08858  0.96600  0.21044  1.0000 -0.0698805121
C   C17       1.0  0.01492  0.08044  0.41800  1.0000 0.1326702023
C   C18       1.0  0.51492  0.41956  0.58200  1.0000 0.1326702023
C   C19       1.0  0.98508  0.58044  0.08200  1.0000 0.1326702023
C   C20       1.0  0.48508  0.91956  0.91800  1.0000 0.1326702023
C   C21       1.0  0.98508  0.91956  0.58200  1.0000 0.1326702023
C   C22       1.0  0.48508  0.58044  0.41800  1.0000 0.1326702023
C   C23       1.0  0.01492  0.41956  0.91800  1.0000 0.1326702023
C   C24       1.0  0.51492  0.08044  0.08200  1.0000 0.1326702023
C   C25       1.0  0.14331  0.85561  0.39556  1.0000 -0.0698805121
C   C26       1.0  0.64331  0.64439  0.60444  1.0000 -0.0698805121
C   C27       1.0  0.85669  0.35561  0.10444  1.0000 -0.0698805121
C   C28       1.0  0.35669  0.14439  0.89556  1.0000 -0.0698805121
C   C29       1.0  0.85669  0.14439  0.60444  1.0000 -0.0698805121
C   C30       1.0  0.35669  0.35561  0.39556  1.0000 -0.0698805121
C   C31       1.0  0.14331  0.64439  0.89556  1.0000 -0.0698805121
C   C32       1.0  0.64331  0.85561  0.10444  1.0000 -0.0698805121
C   C33       1.0  0.10544  0.11766  0.34612  1.0000 -0.0698805121
C   C34       1.0  0.60544  0.38234  0.65388  1.0000 -0.0698805121
C   C35       1.0  0.89456  0.61766  0.15388  1.0000 -0.0698805121
C   C36       1.0  0.39456  0.88234  0.84612  1.0000 -0.0698805121
C   C37       1.0  0.89456  0.88234  0.65388  1.0000 -0.0698805121
C   C38       1.0  0.39456  0.61766  0.34612  1.0000 -0.0698805121
C   C39       1.0  0.10544  0.38234  0.84612  1.0000 -0.0698805121
C   C40       1.0  0.60544  0.11766  0.15388  1.0000 -0.0698805121
C   C41       1.0  0.10922  0.15531  0.38792  1.0000 -0.061117784
C   C42       1.0  0.60922  0.34469  0.61208  1.0000 -0.061117784
C   C43       1.0  0.89078  0.65531  0.11208  1.0000 -0.061117784
C   C44       1.0  0.39078  0.84469  0.88792  1.0000 -0.061117784
C   C45       1.0  0.89078  0.84469  0.61208  1.0000 -0.061117784
C   C46       1.0  0.39078  0.65531  0.38792  1.0000 -0.061117784
C   C47       1.0  0.10922  0.34469  0.88792  1.0000 -0.061117784
C   C48       1.0  0.60922  0.15531  0.11208  1.0000 -0.061117784
C   C49       1.0  0.99544  0.91857  0.41783  1.0000 0.119716431
C   C50       1.0  0.49544  0.58143  0.58217  1.0000 0.119716431
C   C51       1.0  0.00456  0.41857  0.08217  1.0000 0.119716431
C   C52       1.0  0.50456  0.08143  0.91783  1.0000 0.119716431
C   C53       1.0  0.00456  0.08143  0.58217  1.0000 0.119716431
C   C54       1.0  0.50456  0.41857  0.41783  1.0000 0.119716431
C   C55       1.0  0.99544  0.58143  0.91783  1.0000 0.119716431
C   C56       1.0  0.49544  0.91857  0.08217  1.0000 0.119716431
C   C57       1.0  0.14188  0.89519  0.35535  1.0000 -0.061117784
C   C58       1.0  0.64188  0.60481  0.64465  1.0000 -0.061117784
C   C59       1.0  0.85812  0.39519  0.14465  1.0000 -0.061117784
C   C60       1.0  0.35812  0.10481  0.85535  1.0000 -0.061117784
C   C61       1.0  0.85812  0.10481  0.64465  1.0000 -0.061117784
C   C62       1.0  0.35812  0.39519  0.35535  1.0000 -0.061117784
C   C63       1.0  0.14188  0.60481  0.85535  1.0000 -0.061117784
C   C64       1.0  0.64188  0.89519  0.14465  1.0000 -0.061117784
C   C65       1.0  0.75587  0.24739  0.50263  1.0000 0.1445006551
C   C66       1.0  0.25587  0.25261  0.49737  1.0000 0.1445006551
C   C67       1.0  0.24413  0.74739  0.99737  1.0000 0.1445006551
C   C68       1.0  0.74413  0.75261  0.00263  1.0000 0.1445006551
C   C69       1.0  0.24413  0.75261  0.49737  1.0000 0.1445006551
C   C70       1.0  0.74413  0.74739  0.50263  1.0000 0.1445006551
C   C71       1.0  0.75587  0.25261  0.00263  1.0000 0.1445006551
C   C72       1.0  0.25587  0.24739  0.99737  1.0000 0.1445006551
C   C73       1.0  0.89493  0.27103  0.43823  1.0000 -0.061117784
C   C74       1.0  0.39493  0.22897  0.56177  1.0000 -0.061117784
C   C75       1.0  0.10507  0.77103  0.06177  1.0000 -0.061117784
C   C76       1.0  0.60507  0.72897  0.93823  1.0000 -0.061117784
C   C77       1.0  0.10507  0.72897  0.56177  1.0000 -0.061117784
C   C78       1.0  0.60507  0.77103  0.43823  1.0000 -0.061117784
C   C79       1.0  0.89493  0.22897  0.93823  1.0000 -0.061117784
C   C80       1.0  0.39493  0.27103  0.06177  1.0000 -0.061117784
C   C81       1.0  0.70156  0.96609  0.32350  1.0000 -0.0698805121
C   C82       1.0  0.20156  0.53391  0.67650  1.0000 -0.0698805121
C   C83       1.0  0.29844  0.46609  0.17650  1.0000 -0.0698805121
C   C84       1.0  0.79844  0.03391  0.82350  1.0000 -0.0698805121
C   C85       1.0  0.29844  0.03391  0.67650  1.0000 -0.0698805121
C   C86       1.0  0.79844  0.46609  0.32350  1.0000 -0.0698805121
C   C87       1.0  0.70156  0.53391  0.82350  1.0000 -0.0698805121
C   C88       1.0  0.20156  0.96609  0.17650  1.0000 -0.0698805121
C   C89       1.0  0.75240  0.01236  0.25077  1.0000 0.1326702023
C   C90       1.0  0.25240  0.48764  0.74923  1.0000 0.1326702023
C   C91       1.0  0.24760  0.51236  0.24923  1.0000 0.1326702023
C   C92       1.0  0.74760  0.98764  0.75077  1.0000 0.1326702023
C   C93       1.0  0.24760  0.98764  0.74923  1.0000 0.1326702023
C   C94       1.0  0.74760  0.51236  0.25077  1.0000 0.1326702023
C   C95       1.0  0.75240  0.48764  0.75077  1.0000 0.1326702023
C   C96       1.0  0.25240  0.01236  0.24923  1.0000 0.1326702023
N   N1        1.0  0.04545  0.06989  0.36560  1.0000 -0.2990668444
N   N2        1.0  0.54545  0.43011  0.63440  1.0000 -0.2990668444
N   N3        1.0  0.95455  0.56989  0.13440  1.0000 -0.2990668444
N   N4        1.0  0.45455  0.93011  0.86560  1.0000 -0.2990668444
N   N5        1.0  0.95455  0.93011  0.63440  1.0000 -0.2990668444
N   N6        1.0  0.45455  0.56989  0.36560  1.0000 -0.2990668444
N   N7        1.0  0.04545  0.43011  0.86560  1.0000 -0.2990668444
N   N8        1.0  0.54545  0.06989  0.13440  1.0000 -0.2990668444
N   N9        1.0  0.87853  0.23459  0.48073  1.0000 -0.2894133267
N   N10       1.0  0.37853  0.26541  0.51927  1.0000 -0.2894133267
N   N11       1.0  0.12147  0.73459  0.01927  1.0000 -0.2894133267
N   N12       1.0  0.62147  0.76541  0.98073  1.0000 -0.2894133267
N   N13       1.0  0.12147  0.76541  0.51927  1.0000 -0.2894133267
N   N14       1.0  0.62147  0.73459  0.48073  1.0000 -0.2894133267
N   N15       1.0  0.87853  0.26541  0.98073  1.0000 -0.2894133267
N   N16       1.0  0.37853  0.23459  0.01927  1.0000 -0.2894133267
N   N17       1.0  0.69242  0.28966  0.47778  1.0000 -0.2894133267
N   N18       1.0  0.19242  0.21034  0.52222  1.0000 -0.2894133267
N   N19       1.0  0.30758  0.78966  0.02222  1.0000 -0.2894133267
N   N20       1.0  0.80758  0.71034  0.97778  1.0000 -0.2894133267
N   N21       1.0  0.30758  0.71034  0.52222  1.0000 -0.2894133267
N   N22       1.0  0.80758  0.78966  0.47778  1.0000 -0.2894133267
N   N23       1.0  0.69242  0.21034  0.97778  1.0000 -0.2894133267
N   N24       1.0  0.19242  0.28966  0.02222  1.0000 -0.2894133267
N   N25       1.0  0.04722  0.93512  0.36968  1.0000 -0.2894133267
N   N26       1.0  0.54722  0.56488  0.63032  1.0000 -0.2894133267
N   N27       1.0  0.95278  0.43512  0.13032  1.0000 -0.2894133267
N   N28       1.0  0.45278  0.06488  0.86968  1.0000 -0.2894133267
N   N29       1.0  0.95278  0.06488  0.63032  1.0000 -0.2894133267
N   N30       1.0  0.45278  0.43512  0.36968  1.0000 -0.2894133267
N   N31       1.0  0.04722  0.56488  0.86968  1.0000 -0.2894133267
N   N32       1.0  0.54722  0.93512  0.13032  1.0000 -0.2894133267
N   N33       1.0  0.05134  0.13150  0.43334  1.0000 -0.2894133267
N   N34       1.0  0.55134  0.36850  0.56666  1.0000 -0.2894133267
N   N35       1.0  0.94866  0.63150  0.06666  1.0000 -0.2894133267
N   N36       1.0  0.44866  0.86850  0.93334  1.0000 -0.2894133267
N   N37       1.0  0.94866  0.86850  0.56666  1.0000 -0.2894133267
N   N38       1.0  0.44866  0.63150  0.43334  1.0000 -0.2894133267
N   N39       1.0  0.05134  0.36850  0.93334  1.0000 -0.2894133267
N   N40       1.0  0.55134  0.13150  0.06666  1.0000 -0.2894133267
N   N41       1.0  0.04936  0.87055  0.43519  1.0000 -0.2894133267
N   N42       1.0  0.54936  0.62945  0.56481  1.0000 -0.2894133267
N   N43       1.0  0.95064  0.37055  0.06481  1.0000 -0.2894133267
N   N44       1.0  0.45064  0.12945  0.93519  1.0000 -0.2894133267
N   N45       1.0  0.95064  0.12945  0.56481  1.0000 -0.2894133267
N   N46       1.0  0.45064  0.37055  0.43519  1.0000 -0.2894133267
N   N47       1.0  0.04936  0.62945  0.93519  1.0000 -0.2894133267
N   N48       1.0  0.54936  0.87055  0.06481  1.0000 -0.2894133267
N   N49       1.0  0.12163  0.99573  0.25681  1.0000 -0.2894133267
N   N50       1.0  0.62163  0.50427  0.74319  1.0000 -0.2894133267
N   N51       1.0  0.87837  0.49573  0.24319  1.0000 -0.2894133267
N   N52       1.0  0.37837  0.00427  0.75681  1.0000 -0.2894133267
N   N53       1.0  0.87837  0.00427  0.74319  1.0000 -0.2894133267
N   N54       1.0  0.37837  0.49573  0.25681  1.0000 -0.2894133267
N   N55       1.0  0.12163  0.50427  0.75681  1.0000 -0.2894133267
N   N56       1.0  0.62163  0.99573  0.24319  1.0000 -0.2894133267
N   N57       1.0  0.80580  0.99557  0.29853  1.0000 -0.2894133267
N   N58       1.0  0.30580  0.50443  0.70147  1.0000 -0.2894133267
N   N59       1.0  0.19420  0.49557  0.20147  1.0000 -0.2894133267
N   N60       1.0  0.69420  0.00443  0.79853  1.0000 -0.2894133267
N   N61       1.0  0.19420  0.00443  0.70147  1.0000 -0.2894133267
N   N62       1.0  0.69420  0.49557  0.29853  1.0000 -0.2894133267
N   N63       1.0  0.80580  0.50443  0.79853  1.0000 -0.2894133267
N   N64       1.0  0.30580  0.99557  0.20147  1.0000 -0.2894133267
