# DDEC6 charges by PACMAN v1.1 (https://github.com/mtap-research/PACMAN-charge/)
data_c9qm00644c2_2_FSR_pacman
_symmetry_space_group_name_H-M   'P 1'
_cell_length_a   19.51900000
_cell_length_b   19.51900000
_cell_length_c   49.10680000
_cell_angle_alpha   90.00000000
_cell_angle_beta   90.00000000
_cell_angle_gamma   90.00000000
_symmetry_Int_Tables_number   1
_chemical_formula_structural   Fe3H30C48(N3O4)4
_chemical_formula_sum   'Fe12 H120 C192 N48 O64'
_cell_volume   18709.26656635
_cell_formula_units_Z   4
loop_
 _symmetry_equiv_pos_site_id
 _symmetry_equiv_pos_as_xyz
  1  'x, y, z'
loop_
 _atom_site_type_symbol
 _atom_site_label
 _atom_site_symmetry_multiplicity
 _atom_site_fract_x
 _atom_site_fract_y
 _atom_site_fract_z
 _atom_site_occupancy
 _atom_site_charge
Fe  Fe1  1  0.46911000  0.43315000  0.53166000  1.0 1.2433000345
Fe  Fe2  1  0.53089000  0.56685000  0.03166000  1.0 1.2433000345
Fe  Fe3  1  0.06685000  0.96911000  0.78166000  1.0 1.2433000345
Fe  Fe4  1  0.93315000  0.03089000  0.28166000  1.0 1.2433000345
Fe  Fe5  1  0.03089000  0.93315000  0.71834000  1.0 1.2433000345
Fe  Fe6  1  0.96911000  0.06685000  0.21834000  1.0 1.2433000345
Fe  Fe7  1  0.43315000  0.46911000  0.46834000  1.0 1.2433000345
Fe  Fe8  1  0.56685000  0.53089000  0.96834000  1.0 1.2433000345
Fe  Fe9  1  0.55676000  0.55676000  0.50000000  1.0 1.2731480886
Fe  Fe10  1  0.44324000  0.44324000  0.00000000  1.0 1.2731480886
Fe  Fe11  1  0.94324000  0.05676000  0.75000000  1.0 1.2731480886
Fe  Fe12  1  0.05676000  0.94324000  0.25000000  1.0 1.2731480886
H  H1  1  0.39500000  0.56750000  0.59490000  1.0 0.1396543075
H  H2  1  0.60500000  0.43250000  0.09490000  1.0 0.1396543075
H  H3  1  0.93250000  0.89500000  0.84490000  1.0 0.1396543075
H  H4  1  0.06750000  0.10500000  0.34490000  1.0 0.1396543075
H  H5  1  0.10500000  0.06750000  0.65510000  1.0 0.1396543075
H  H6  1  0.89500000  0.93250000  0.15510000  1.0 0.1396543075
H  H7  1  0.56750000  0.39500000  0.40510000  1.0 0.1396543075
H  H8  1  0.43250000  0.60500000  0.90510000  1.0 0.1396543075
H  H9  1  0.37060000  0.64490000  0.62820000  1.0 0.1238437843
H  H10  1  0.62940000  0.35510000  0.12820000  1.0 0.1238437843
H  H11  1  0.85510000  0.87060000  0.87820000  1.0 0.1238437843
H  H12  1  0.14490000  0.12940000  0.37820000  1.0 0.1238437843
H  H13  1  0.12940000  0.14490000  0.62180000  1.0 0.1238437843
H  H14  1  0.87060000  0.85510000  0.12180000  1.0 0.1238437843
H  H15  1  0.64490000  0.37060000  0.37180000  1.0 0.1238437843
H  H16  1  0.35510000  0.62940000  0.87180000  1.0 0.1238437843
H  H17  1  0.53060000  0.76000000  0.60570000  1.0 0.1298261061
H  H18  1  0.46940000  0.24000000  0.10570000  1.0 0.1298261061
H  H19  1  0.74000000  0.03060000  0.85570000  1.0 0.1298261061
H  H20  1  0.26000000  0.96940000  0.35570000  1.0 0.1298261061
H  H21  1  0.96940000  0.26000000  0.64430000  1.0 0.1298261061
H  H22  1  0.03060000  0.74000000  0.14430000  1.0 0.1298261061
H  H23  1  0.76000000  0.53060000  0.39430000  1.0 0.1298261061
H  H24  1  0.24000000  0.46940000  0.89430000  1.0 0.1298261061
H  H25  1  0.54730000  0.68780000  0.56980000  1.0 0.1298261061
H  H26  1  0.45270000  0.31220000  0.06980000  1.0 0.1298261061
H  H27  1  0.81220000  0.04730000  0.81980000  1.0 0.1298261061
H  H28  1  0.18780000  0.95270000  0.31980000  1.0 0.1298261061
H  H29  1  0.95270000  0.18780000  0.68020000  1.0 0.1298261061
H  H30  1  0.04730000  0.81220000  0.18020000  1.0 0.1298261061
H  H31  1  0.68780000  0.54730000  0.43020000  1.0 0.1298261061
H  H32  1  0.31220000  0.45270000  0.93020000  1.0 0.1298261061
H  H33  1  0.76760000  0.80680000  0.65990000  1.0 0.1298261061
H  H34  1  0.23240000  0.19320000  0.15990000  1.0 0.1298261061
H  H35  1  0.69320000  0.26760000  0.90990000  1.0 0.1298261061
H  H36  1  0.30680000  0.73240000  0.40990000  1.0 0.1298261061
H  H37  1  0.73240000  0.30680000  0.59010000  1.0 0.1298261061
H  H38  1  0.26760000  0.69320000  0.09010000  1.0 0.1298261061
H  H39  1  0.80680000  0.76760000  0.34010000  1.0 0.1298261061
H  H40  1  0.19320000  0.23240000  0.84010000  1.0 0.1298261061
H  H41  1  0.86190000  0.85660000  0.67850000  1.0 0.1298261061
H  H42  1  0.13810000  0.14340000  0.17850000  1.0 0.1298261061
H  H43  1  0.64340000  0.36190000  0.92850000  1.0 0.1298261061
H  H44  1  0.35660000  0.63810000  0.42850000  1.0 0.1298261061
H  H45  1  0.63810000  0.35660000  0.57150000  1.0 0.1298261061
H  H46  1  0.36190000  0.64340000  0.07150000  1.0 0.1298261061
H  H47  1  0.85660000  0.86190000  0.32150000  1.0 0.1298261061
H  H48  1  0.14340000  0.13810000  0.82150000  1.0 0.1298261061
H  H49  1  0.74630000  0.97640000  0.72330000  1.0 0.1298261061
H  H50  1  0.25370000  0.02360000  0.22330000  1.0 0.1298261061
H  H51  1  0.52360000  0.24630000  0.97330000  1.0 0.1298261061
H  H52  1  0.47640000  0.75370000  0.47330000  1.0 0.1298261061
H  H53  1  0.75370000  0.47640000  0.52670000  1.0 0.1298261061
H  H54  1  0.24630000  0.52360000  0.02670000  1.0 0.1298261061
H  H55  1  0.97640000  0.74630000  0.27670000  1.0 0.1298261061
H  H56  1  0.02360000  0.25370000  0.77670000  1.0 0.1298261061
H  H57  1  0.65060000  0.92980000  0.70380000  1.0 0.1298261061
H  H58  1  0.34940000  0.07020000  0.20380000  1.0 0.1298261061
H  H59  1  0.57020000  0.15060000  0.95380000  1.0 0.1298261061
H  H60  1  0.42980000  0.84940000  0.45380000  1.0 0.1298261061
H  H61  1  0.84940000  0.42980000  0.54620000  1.0 0.1298261061
H  H62  1  0.15060000  0.57020000  0.04620000  1.0 0.1298261061
H  H63  1  0.92980000  0.65060000  0.29620000  1.0 0.1298261061
H  H64  1  0.07020000  0.34940000  0.79620000  1.0 0.1298261061
H  H65  1  0.34180000  0.89010000  0.68160000  1.0 0.1238437843
H  H66  1  0.65820000  0.10990000  0.18160000  1.0 0.1238437843
H  H67  1  0.60990000  0.84180000  0.93160000  1.0 0.1238437843
H  H68  1  0.39010000  0.15820000  0.43160000  1.0 0.1238437843
H  H69  1  0.15820000  0.39010000  0.56840000  1.0 0.1238437843
H  H70  1  0.84180000  0.60990000  0.06840000  1.0 0.1238437843
H  H71  1  0.89010000  0.34180000  0.31840000  1.0 0.1238437843
H  H72  1  0.10990000  0.65820000  0.81840000  1.0 0.1238437843
H  H73  1  0.22930000  0.91080000  0.69480000  1.0 0.1298261061
H  H74  1  0.77070000  0.08920000  0.19480000  1.0 0.1298261061
H  H75  1  0.58920000  0.72930000  0.94480000  1.0 0.1298261061
H  H76  1  0.41080000  0.27070000  0.44480000  1.0 0.1298261061
H  H77  1  0.27070000  0.41080000  0.55520000  1.0 0.1298261061
H  H78  1  0.72930000  0.58920000  0.05520000  1.0 0.1298261061
H  H79  1  0.91080000  0.22930000  0.30520000  1.0 0.1298261061
H  H80  1  0.08920000  0.77070000  0.80520000  1.0 0.1298261061
H  H81  1  0.29290000  0.98140000  0.76660000  1.0 0.1298261061
H  H82  1  0.70710000  0.01860000  0.26660000  1.0 0.1298261061
H  H83  1  0.51860000  0.79290000  0.01660000  1.0 0.1298261061
H  H84  1  0.48140000  0.20710000  0.51660000  1.0 0.1298261061
H  H85  1  0.20710000  0.48140000  0.48340000  1.0 0.1298261061
H  H86  1  0.79290000  0.51860000  0.98340000  1.0 0.1298261061
H  H87  1  0.98140000  0.29290000  0.23340000  1.0 0.1298261061
H  H88  1  0.01860000  0.70710000  0.73340000  1.0 0.1298261061
H  H89  1  0.40340000  0.95880000  0.75470000  1.0 0.1298261061
H  H90  1  0.59660000  0.04120000  0.25470000  1.0 0.1298261061
H  H91  1  0.54120000  0.90340000  0.00470000  1.0 0.1298261061
H  H92  1  0.45880000  0.09660000  0.50470000  1.0 0.1298261061
H  H93  1  0.09660000  0.45880000  0.49530000  1.0 0.1298261061
H  H94  1  0.90340000  0.54120000  0.99530000  1.0 0.1298261061
H  H95  1  0.95880000  0.40340000  0.24530000  1.0 0.1298261061
H  H96  1  0.04120000  0.59660000  0.74530000  1.0 0.1298261061
H  H97  1  0.65580000  0.80830000  0.65180000  1.0 0.2912848581
H  H98  1  0.34420000  0.19170000  0.15180000  1.0 0.2912848581
H  H99  1  0.69170000  0.15580000  0.90180000  1.0 0.2912848581
H  H100  1  0.30830000  0.84420000  0.40180000  1.0 0.2912848581
H  H101  1  0.84420000  0.30830000  0.59820000  1.0 0.2912848581
H  H102  1  0.15580000  0.69170000  0.09820000  1.0 0.2912848581
H  H103  1  0.80830000  0.65580000  0.34820000  1.0 0.2912848581
H  H104  1  0.19170000  0.34420000  0.84820000  1.0 0.2912848581
H  H105  1  0.48110000  0.93400000  0.72080000  1.0 0.297890893
H  H106  1  0.51890000  0.06600000  0.22080000  1.0 0.297890893
H  H107  1  0.56600000  0.98110000  0.97080000  1.0 0.297890893
H  H108  1  0.43400000  0.01890000  0.47080000  1.0 0.297890893
H  H109  1  0.01890000  0.43400000  0.52920000  1.0 0.297890893
H  H110  1  0.98110000  0.56600000  0.02920000  1.0 0.297890893
H  H111  1  0.93400000  0.48110000  0.27920000  1.0 0.297890893
H  H112  1  0.06600000  0.51890000  0.77920000  1.0 0.297890893
H  H113  1  0.39080000  0.75380000  0.64780000  1.0 0.297890893
H  H114  1  0.60920000  0.24620000  0.14780000  1.0 0.297890893
H  H115  1  0.74620000  0.89080000  0.89780000  1.0 0.297890893
H  H116  1  0.25380000  0.10920000  0.39780000  1.0 0.297890893
H  H117  1  0.10920000  0.25380000  0.60220000  1.0 0.297890893
H  H118  1  0.89080000  0.74620000  0.10220000  1.0 0.297890893
H  H119  1  0.75380000  0.39080000  0.35220000  1.0 0.297890893
H  H120  1  0.24620000  0.60920000  0.85220000  1.0 0.297890893
C  C1  1  0.48720000  0.57180000  0.55492000  1.0 0.5699675445
C  C2  1  0.51280000  0.42820000  0.05492000  1.0 0.5699675445
C  C3  1  0.92820000  0.98720000  0.80492000  1.0 0.5699675445
C  C4  1  0.07180000  0.01280000  0.30492000  1.0 0.5699675445
C  C5  1  0.01280000  0.07180000  0.69508000  1.0 0.5699675445
C  C6  1  0.98720000  0.92820000  0.19508000  1.0 0.5699675445
C  C7  1  0.57180000  0.48720000  0.44508000  1.0 0.5699675445
C  C8  1  0.42820000  0.51280000  0.94508000  1.0 0.5699675445
C  C9  1  0.47240000  0.62060000  0.57772000  1.0 -0.0507479358
C  C10  1  0.52760000  0.37940000  0.07772000  1.0 -0.0507479358
C  C11  1  0.87940000  0.97240000  0.82772000  1.0 -0.0507479358
C  C12  1  0.12060000  0.02760000  0.32772000  1.0 -0.0507479358
C  C13  1  0.02760000  0.12060000  0.67228000  1.0 -0.0507479358
C  C14  1  0.97240000  0.87940000  0.17228000  1.0 -0.0507479358
C  C15  1  0.62060000  0.47240000  0.42228000  1.0 -0.0507479358
C  C16  1  0.37940000  0.52760000  0.92228000  1.0 -0.0507479358
C  C17  1  0.42070000  0.60750000  0.59629000  1.0 -0.0773233
C  C18  1  0.57930000  0.39250000  0.09629000  1.0 -0.0773233
C  C19  1  0.89250000  0.92070000  0.84629000  1.0 -0.0773233
C  C20  1  0.10750000  0.07930000  0.34629000  1.0 -0.0773233
C  C21  1  0.07930000  0.10750000  0.65371000  1.0 -0.0773233
C  C22  1  0.92070000  0.89250000  0.15371000  1.0 -0.0773233
C  C23  1  0.60750000  0.42070000  0.40371000  1.0 -0.0773233
C  C24  1  0.39250000  0.57930000  0.90371000  1.0 -0.0773233
C  C25  1  0.40720000  0.65320000  0.61655000  1.0 -0.2006460677
C  C26  1  0.59280000  0.34680000  0.11655000  1.0 -0.2006460677
C  C27  1  0.84680000  0.90720000  0.86655000  1.0 -0.2006460677
C  C28  1  0.15320000  0.09280000  0.36655000  1.0 -0.2006460677
C  C29  1  0.09280000  0.15320000  0.63345000  1.0 -0.2006460677
C  C30  1  0.90720000  0.84680000  0.13345000  1.0 -0.2006460677
C  C31  1  0.65320000  0.40720000  0.38345000  1.0 -0.2006460677
C  C32  1  0.34680000  0.59280000  0.88345000  1.0 -0.2006460677
C  C33  1  0.44760000  0.71310000  0.62039000  1.0 0.2243914184
C  C34  1  0.55240000  0.28690000  0.12039000  1.0 0.2243914184
C  C35  1  0.78690000  0.94760000  0.87039000  1.0 0.2243914184
C  C36  1  0.21310000  0.05240000  0.37039000  1.0 0.2243914184
C  C37  1  0.05240000  0.21310000  0.62961000  1.0 0.2243914184
C  C38  1  0.94760000  0.78690000  0.12961000  1.0 0.2243914184
C  C39  1  0.71310000  0.44760000  0.37961000  1.0 0.2243914184
C  C40  1  0.28690000  0.55240000  0.87961000  1.0 0.2243914184
C  C41  1  0.50120000  0.72310000  0.60310000  1.0 -0.1909543774
C  C42  1  0.49880000  0.27690000  0.10310000  1.0 -0.1909543774
C  C43  1  0.77690000  0.00120000  0.85310000  1.0 -0.1909543774
C  C44  1  0.22310000  0.99880000  0.35310000  1.0 -0.1909543774
C  C45  1  0.99880000  0.22310000  0.64690000  1.0 -0.1909543774
C  C46  1  0.00120000  0.77690000  0.14690000  1.0 -0.1909543774
C  C47  1  0.72310000  0.50120000  0.39690000  1.0 -0.1909543774
C  C48  1  0.27690000  0.49880000  0.89690000  1.0 -0.1909543774
C  C49  1  0.51190000  0.67860000  0.58196000  1.0 -0.0773233
C  C50  1  0.48810000  0.32140000  0.08196000  1.0 -0.0773233
C  C51  1  0.82140000  0.01190000  0.83196000  1.0 -0.0773233
C  C52  1  0.17860000  0.98810000  0.33196000  1.0 -0.0773233
C  C53  1  0.98810000  0.17860000  0.66804000  1.0 -0.0773233
C  C54  1  0.01190000  0.82140000  0.16804000  1.0 -0.0773233
C  C55  1  0.67860000  0.51190000  0.41804000  1.0 -0.0773233
C  C56  1  0.32140000  0.48810000  0.91804000  1.0 -0.0773233
C  C57  1  0.47250000  0.79700000  0.65617000  1.0 0.5383892048
C  C58  1  0.52750000  0.20300000  0.15617000  1.0 0.5383892048
C  C59  1  0.70300000  0.97250000  0.90617000  1.0 0.5383892048
C  C60  1  0.29700000  0.02750000  0.40617000  1.0 0.5383892048
C  C61  1  0.02750000  0.29700000  0.59383000  1.0 0.5383892048
C  C62  1  0.97250000  0.70300000  0.09383000  1.0 0.5383892048
C  C63  1  0.79700000  0.47250000  0.34383000  1.0 0.5383892048
C  C64  1  0.20300000  0.52750000  0.84383000  1.0 0.5383892048
C  C65  1  0.57420000  0.83580000  0.66994000  1.0 0.528219818
C  C66  1  0.42580000  0.16420000  0.16994000  1.0 0.528219818
C  C67  1  0.66420000  0.07420000  0.91994000  1.0 0.528219818
C  C68  1  0.33580000  0.92580000  0.41994000  1.0 0.528219818
C  C69  1  0.92580000  0.33580000  0.58006000  1.0 0.528219818
C  C70  1  0.07420000  0.66420000  0.08006000  1.0 0.528219818
C  C71  1  0.83580000  0.57420000  0.33006000  1.0 0.528219818
C  C72  1  0.16420000  0.42580000  0.83006000  1.0 0.528219818
C  C73  1  0.48180000  0.87280000  0.69080000  1.0 0.528219818
C  C74  1  0.51820000  0.12720000  0.19080000  1.0 0.528219818
C  C75  1  0.62720000  0.98180000  0.94080000  1.0 0.528219818
C  C76  1  0.37280000  0.01820000  0.44080000  1.0 0.528219818
C  C77  1  0.01820000  0.37280000  0.55920000  1.0 0.528219818
C  C78  1  0.98180000  0.62720000  0.05920000  1.0 0.528219818
C  C79  1  0.87280000  0.48180000  0.30920000  1.0 0.528219818
C  C80  1  0.12720000  0.51820000  0.80920000  1.0 0.528219818
C  C81  1  0.69960000  0.86330000  0.67899000  1.0 0.211147352
C  C82  1  0.30040000  0.13670000  0.17899000  1.0 0.211147352
C  C83  1  0.63670000  0.19960000  0.92899000  1.0 0.211147352
C  C84  1  0.36330000  0.80040000  0.42899000  1.0 0.211147352
C  C85  1  0.80040000  0.36330000  0.57101000  1.0 0.211147352
C  C86  1  0.19960000  0.63670000  0.07101000  1.0 0.211147352
C  C87  1  0.86330000  0.69960000  0.32101000  1.0 0.211147352
C  C88  1  0.13670000  0.30040000  0.82101000  1.0 0.211147352
C  C89  1  0.76220000  0.84200000  0.67245000  1.0 -0.2161646738
C  C90  1  0.23780000  0.15800000  0.17245000  1.0 -0.2161646738
C  C91  1  0.65800000  0.26220000  0.92245000  1.0 -0.2161646738
C  C92  1  0.34200000  0.73780000  0.42245000  1.0 -0.2161646738
C  C93  1  0.73780000  0.34200000  0.57755000  1.0 -0.2161646738
C  C94  1  0.26220000  0.65800000  0.07755000  1.0 -0.2161646738
C  C95  1  0.84200000  0.76220000  0.32755000  1.0 -0.2161646738
C  C96  1  0.15800000  0.23780000  0.82755000  1.0 -0.2161646738
C  C97  1  0.81880000  0.87130000  0.68404000  1.0 -0.0620574397
C  C98  1  0.18120000  0.12870000  0.18404000  1.0 -0.0620574397
C  C99  1  0.62870000  0.31880000  0.93404000  1.0 -0.0620574397
C  C100  1  0.37130000  0.68120000  0.43404000  1.0 -0.0620574397
C  C101  1  0.68120000  0.37130000  0.56596000  1.0 -0.0620574397
C  C102  1  0.31880000  0.62870000  0.06596000  1.0 -0.0620574397
C  C103  1  0.87130000  0.81880000  0.31596000  1.0 -0.0620574397
C  C104  1  0.12870000  0.18120000  0.81596000  1.0 -0.0620574397
C  C105  1  0.81450000  0.92180000  0.70360000  1.0 -0.092137
C  C106  1  0.18550000  0.07820000  0.20360000  1.0 -0.092137
C  C107  1  0.57820000  0.31450000  0.95360000  1.0 -0.092137
C  C108  1  0.42180000  0.68550000  0.45360000  1.0 -0.092137
C  C109  1  0.68550000  0.42180000  0.54640000  1.0 -0.092137
C  C110  1  0.31450000  0.57820000  0.04640000  1.0 -0.092137
C  C111  1  0.92180000  0.81450000  0.29640000  1.0 -0.092137
C  C112  1  0.07820000  0.18550000  0.79640000  1.0 -0.092137
C  C113  1  0.75140000  0.94220000  0.71030000  1.0 -0.066401895
C  C114  1  0.24860000  0.05780000  0.21030000  1.0 -0.066401895
C  C115  1  0.55780000  0.25140000  0.96030000  1.0 -0.066401895
C  C116  1  0.44220000  0.74860000  0.46030000  1.0 -0.066401895
C  C117  1  0.74860000  0.44220000  0.53970000  1.0 -0.066401895
C  C118  1  0.25140000  0.55780000  0.03970000  1.0 -0.066401895
C  C119  1  0.94220000  0.75140000  0.28970000  1.0 -0.066401895
C  C120  1  0.05780000  0.24860000  0.78970000  1.0 -0.066401895
C  C121  1  0.69370000  0.91440000  0.69859000  1.0 -0.1909543774
C  C122  1  0.30630000  0.08560000  0.19859000  1.0 -0.1909543774
C  C123  1  0.58560000  0.19370000  0.94859000  1.0 -0.1909543774
C  C124  1  0.41440000  0.80630000  0.44859000  1.0 -0.1909543774
C  C125  1  0.80630000  0.41440000  0.55141000  1.0 -0.1909543774
C  C126  1  0.19370000  0.58560000  0.05141000  1.0 -0.1909543774
C  C127  1  0.91440000  0.69370000  0.30141000  1.0 -0.1909543774
C  C128  1  0.08560000  0.30630000  0.80141000  1.0 -0.1909543774
C  C129  1  0.38490000  0.92250000  0.71778000  1.0 0.2293930751
C  C130  1  0.61510000  0.07750000  0.21778000  1.0 0.2293930751
C  C131  1  0.57750000  0.88490000  0.96778000  1.0 0.2293930751
C  C132  1  0.42250000  0.11510000  0.46778000  1.0 0.2293930751
C  C133  1  0.11510000  0.42250000  0.53222000  1.0 0.2293930751
C  C134  1  0.88490000  0.57750000  0.03222000  1.0 0.2293930751
C  C135  1  0.92250000  0.38490000  0.28222000  1.0 0.2293930751
C  C136  1  0.07750000  0.61510000  0.78222000  1.0 0.2293930751
C  C137  1  0.33190000  0.90730000  0.69885000  1.0 -0.1909543774
C  C138  1  0.66810000  0.09270000  0.19885000  1.0 -0.1909543774
C  C139  1  0.59270000  0.83190000  0.94885000  1.0 -0.1909543774
C  C140  1  0.40730000  0.16810000  0.44885000  1.0 -0.1909543774
C  C141  1  0.16810000  0.40730000  0.55115000  1.0 -0.1909543774
C  C142  1  0.83190000  0.59270000  0.05115000  1.0 -0.1909543774
C  C143  1  0.90730000  0.33190000  0.30115000  1.0 -0.1909543774
C  C144  1  0.09270000  0.66810000  0.80115000  1.0 -0.1909543774
C  C145  1  0.26460000  0.91910000  0.70707000  1.0 -0.066401895
C  C146  1  0.73540000  0.08090000  0.20707000  1.0 -0.066401895
C  C147  1  0.58090000  0.76460000  0.95707000  1.0 -0.0620574397
C  C148  1  0.41910000  0.23540000  0.45707000  1.0 -0.066401895
C  C149  1  0.23540000  0.41910000  0.54293000  1.0 -0.066401895
C  C150  1  0.76460000  0.58090000  0.04293000  1.0 -0.066401895
C  C151  1  0.91910000  0.26460000  0.29293000  1.0 -0.066401895
C  C152  1  0.08090000  0.73540000  0.79293000  1.0 -0.066401895
C  C153  1  0.24760000  0.94340000  0.73357000  1.0 -0.0951484005
C  C154  1  0.75240000  0.05660000  0.23357000  1.0 -0.092137
C  C155  1  0.55660000  0.74760000  0.98357000  1.0 -0.0951484005
C  C156  1  0.44340000  0.25240000  0.48357000  1.0 -0.092137
C  C157  1  0.25240000  0.44340000  0.51643000  1.0 -0.0951484005
C  C158  1  0.74760000  0.55660000  0.01643000  1.0 -0.092137
C  C159  1  0.94340000  0.24760000  0.26643000  1.0 -0.092137
C  C160  1  0.05660000  0.75240000  0.76643000  1.0 -0.0951484005
C  C161  1  0.30160000  0.96070000  0.74985000  1.0 -0.0620574397
C  C162  1  0.69840000  0.03930000  0.24985000  1.0 -0.0620574397
C  C163  1  0.53930000  0.80160000  0.99985000  1.0 -0.0620574397
C  C164  1  0.46070000  0.19840000  0.49985000  1.0 -0.0620574397
C  C165  1  0.19840000  0.46070000  0.50015000  1.0 -0.0620574397
C  C166  1  0.80160000  0.53930000  0.00015000  1.0 -0.0620574397
C  C167  1  0.96070000  0.30160000  0.25015000  1.0 -0.0620574397
C  C168  1  0.03930000  0.69840000  0.75015000  1.0 -0.0620574397
C  C169  1  0.36850000  0.94870000  0.74240000  1.0 -0.2053843002
C  C170  1  0.63150000  0.05130000  0.24240000  1.0 -0.2053843002
C  C171  1  0.55130000  0.86850000  0.99240000  1.0 -0.2053843002
C  C172  1  0.44870000  0.13150000  0.49240000  1.0 -0.2053843002
C  C173  1  0.13150000  0.44870000  0.50760000  1.0 -0.2053843002
C  C174  1  0.86850000  0.55130000  0.00760000  1.0 -0.2006460677
C  C175  1  0.94870000  0.36850000  0.25760000  1.0 -0.2053843002
C  C176  1  0.05130000  0.63150000  0.75760000  1.0 -0.2053843002
C  C177  1  0.87600000  0.94910000  0.71556000  1.0 0.5699675445
C  C178  1  0.12400000  0.05090000  0.21556000  1.0 0.5699675445
C  C179  1  0.55090000  0.37600000  0.96556000  1.0 0.5699675445
C  C180  1  0.44910000  0.62400000  0.46556000  1.0 0.5699675445
C  C181  1  0.62400000  0.44910000  0.53444000  1.0 0.5699675445
C  C182  1  0.37600000  0.55090000  0.03444000  1.0 0.5699675445
C  C183  1  0.94910000  0.87600000  0.28444000  1.0 0.5699675445
C  C184  1  0.05090000  0.12400000  0.78444000  1.0 0.5699675445
C  C185  1  0.17620000  0.95070000  0.74115000  1.0 0.5699675445
C  C186  1  0.82380000  0.04930000  0.24115000  1.0 0.5699675445
C  C187  1  0.54930000  0.67620000  0.99115000  1.0 0.5699675445
C  C188  1  0.45070000  0.32380000  0.49115000  1.0 0.5699675445
C  C189  1  0.32380000  0.45070000  0.50885000  1.0 0.5699675445
C  C190  1  0.67620000  0.54930000  0.00885000  1.0 0.5699675445
C  C191  1  0.95070000  0.17620000  0.25885000  1.0 0.5699675445
C  C192  1  0.04930000  0.82380000  0.75885000  1.0 0.5699675445
N  N1  1  0.53870000  0.79570000  0.65220000  1.0 -0.5213717184
N  N2  1  0.46130000  0.20430000  0.15220000  1.0 -0.5213717184
N  N3  1  0.70430000  0.03870000  0.90220000  1.0 -0.5213717184
N  N4  1  0.29570000  0.96130000  0.40220000  1.0 -0.5213717184
N  N5  1  0.96130000  0.29570000  0.59780000  1.0 -0.5213717184
N  N6  1  0.03870000  0.70430000  0.09780000  1.0 -0.5213717184
N  N7  1  0.79570000  0.53870000  0.34780000  1.0 -0.5213717184
N  N8  1  0.20430000  0.46130000  0.84780000  1.0 -0.5213717184
N  N9  1  0.55050000  0.87480000  0.68919000  1.0 -0.4929569971
N  N10  1  0.44950000  0.12520000  0.18919000  1.0 -0.4929569971
N  N11  1  0.62520000  0.05050000  0.93919000  1.0 -0.4929569971
N  N12  1  0.37480000  0.94950000  0.43919000  1.0 -0.4929569971
N  N13  1  0.94950000  0.37480000  0.56081000  1.0 -0.4929569971
N  N14  1  0.05050000  0.62520000  0.06081000  1.0 -0.4929569971
N  N15  1  0.87480000  0.55050000  0.31081000  1.0 -0.4929569971
N  N16  1  0.12520000  0.44950000  0.81081000  1.0 -0.4929569971
N  N17  1  0.43850000  0.83420000  0.67506000  1.0 -0.5413345407
N  N18  1  0.56150000  0.16580000  0.17506000  1.0 -0.5413345407
N  N19  1  0.66580000  0.93850000  0.92506000  1.0 -0.5413345407
N  N20  1  0.33420000  0.06150000  0.42506000  1.0 -0.5413345407
N  N21  1  0.06150000  0.33420000  0.57494000  1.0 -0.5413345407
N  N22  1  0.93850000  0.66580000  0.07494000  1.0 -0.5413345407
N  N23  1  0.83420000  0.43850000  0.32494000  1.0 -0.5413345407
N  N24  1  0.16580000  0.56150000  0.82494000  1.0 -0.5413345407
N  N25  1  0.64420000  0.83310000  0.66546000  1.0 -0.3719960462
N  N26  1  0.35580000  0.16690000  0.16546000  1.0 -0.3719960462
N  N27  1  0.66690000  0.14420000  0.91546000  1.0 -0.3719960462
N  N28  1  0.33310000  0.85580000  0.41546000  1.0 -0.3719960462
N  N29  1  0.85580000  0.33310000  0.58454000  1.0 -0.3719960462
N  N30  1  0.14420000  0.66690000  0.08454000  1.0 -0.3719960462
N  N31  1  0.83310000  0.64420000  0.33454000  1.0 -0.3719960462
N  N32  1  0.16690000  0.35580000  0.83454000  1.0 -0.3719960462
N  N33  1  0.45230000  0.91200000  0.71081000  1.0 -0.3399549361
N  N34  1  0.54770000  0.08800000  0.21081000  1.0 -0.3399549361
N  N35  1  0.58800000  0.95230000  0.96081000  1.0 -0.3399549361
N  N36  1  0.41200000  0.04770000  0.46081000  1.0 -0.3399549361
N  N37  1  0.04770000  0.41200000  0.53919000  1.0 -0.3399549361
N  N38  1  0.95230000  0.58800000  0.03919000  1.0 -0.3399549361
N  N39  1  0.91200000  0.45230000  0.28919000  1.0 -0.3399549361
N  N40  1  0.08800000  0.54770000  0.78919000  1.0 -0.3399549361
N  N41  1  0.43270000  0.75520000  0.64235000  1.0 -0.3344746839
N  N42  1  0.56730000  0.24480000  0.14235000  1.0 -0.3399549361
N  N43  1  0.74480000  0.93270000  0.89235000  1.0 -0.3399549361
N  N44  1  0.25520000  0.06730000  0.39235000  1.0 -0.3399549361
N  N45  1  0.06730000  0.25520000  0.60765000  1.0 -0.3399549361
N  N46  1  0.93270000  0.74480000  0.10765000  1.0 -0.3344746839
N  N47  1  0.75520000  0.43270000  0.35765000  1.0 -0.3344746839
N  N48  1  0.24480000  0.56730000  0.85765000  1.0 -0.3344746839
O  O1  1  0.53073000  0.59075000  0.53708000  1.0 -0.5213717184
O  O2  1  0.46927000  0.40925000  0.03708000  1.0 -0.5213717184
O  O3  1  0.90925000  0.03073000  0.78708000  1.0 -0.5213717184
O  O4  1  0.09075000  0.96927000  0.28708000  1.0 -0.5213717184
O  O5  1  0.96927000  0.09075000  0.71292000  1.0 -0.5213717184
O  O6  1  0.03073000  0.90925000  0.21292000  1.0 -0.5213717184
O  O7  1  0.59075000  0.53073000  0.46292000  1.0 -0.5213717184
O  O8  1  0.40925000  0.46927000  0.96292000  1.0 -0.5213717184
O  O9  1  0.45532000  0.51600000  0.55547000  1.0 -0.5090755161
O  O10  1  0.54468000  0.48400000  0.05547000  1.0 -0.5090755161
O  O11  1  0.98400000  0.95532000  0.80547000  1.0 -0.5090755161
O  O12  1  0.01600000  0.04468000  0.30547000  1.0 -0.5090755161
O  O13  1  0.04468000  0.01600000  0.69453000  1.0 -0.5090755161
O  O14  1  0.95532000  0.98400000  0.19453000  1.0 -0.5090755161
O  O15  1  0.51600000  0.45532000  0.44453000  1.0 -0.5090755161
O  O16  1  0.48400000  0.54468000  0.94453000  1.0 -0.5090755161
O  O17  1  0.93352000  0.92618000  0.70702000  1.0 -0.5090755161
O  O18  1  0.06648000  0.07382000  0.20702000  1.0 -0.5090755161
O  O19  1  0.57382000  0.43352000  0.95702000  1.0 -0.5090755161
O  O20  1  0.42618000  0.56648000  0.45702000  1.0 -0.5090755161
O  O21  1  0.56648000  0.42618000  0.54298000  1.0 -0.5090755161
O  O22  1  0.43352000  0.57382000  0.04298000  1.0 -0.5090755161
O  O23  1  0.92618000  0.93352000  0.29298000  1.0 -0.5090755161
O  O24  1  0.07382000  0.06648000  0.79298000  1.0 -0.5090755161
O  O25  1  0.87019000  0.99419000  0.73351000  1.0 -0.5003068197
O  O26  1  0.12981000  0.00581000  0.23351000  1.0 -0.5003068197
O  O27  1  0.50581000  0.37019000  0.98351000  1.0 -0.5003068197
O  O28  1  0.49419000  0.62981000  0.48351000  1.0 -0.5003068197
O  O29  1  0.62981000  0.49419000  0.51649000  1.0 -0.5003068197
O  O30  1  0.37019000  0.50581000  0.01649000  1.0 -0.5003068197
O  O31  1  0.99419000  0.87019000  0.26649000  1.0 -0.5003068197
O  O32  1  0.00581000  0.12981000  0.76649000  1.0 -0.5003068197
O  O33  1  0.16031000  0.97616000  0.76338000  1.0 -0.5003068197
O  O34  1  0.83969000  0.02384000  0.26338000  1.0 -0.5003068197
O  O35  1  0.52384000  0.66031000  0.01338000  1.0 -0.5003068197
O  O36  1  0.47616000  0.33969000  0.51338000  1.0 -0.5003068197
O  O37  1  0.33969000  0.47616000  0.48662000  1.0 -0.5003068197
O  O38  1  0.66031000  0.52384000  0.98662000  1.0 -0.5003068197
O  O39  1  0.97616000  0.16031000  0.23662000  1.0 -0.5003068197
O  O40  1  0.02384000  0.83969000  0.73662000  1.0 -0.5003068197
O  O41  1  0.13277000  0.92916000  0.72339000  1.0 -0.5213717184
O  O42  1  0.86723000  0.07084000  0.22339000  1.0 -0.5213717184
O  O43  1  0.57084000  0.63277000  0.97339000  1.0 -0.5213717184
O  O44  1  0.42916000  0.36723000  0.47339000  1.0 -0.5213717184
O  O45  1  0.36723000  0.42916000  0.52661000  1.0 -0.5213717184
O  O46  1  0.63277000  0.57084000  0.02661000  1.0 -0.5213717184
O  O47  1  0.92916000  0.13277000  0.27661000  1.0 -0.5213717184
O  O48  1  0.07084000  0.86723000  0.77661000  1.0 -0.5213717184
O  O49  1  0.45099000  0.37761000  0.56744000  1.0 -0.2006460677
O  O50  1  0.54901000  0.62239000  0.06744000  1.0 -0.1909543774
O  O51  1  0.12239000  0.95099000  0.81744000  1.0 -0.2006460677
O  O52  1  0.87761000  0.04901000  0.31744000  1.0 -0.2006460677
O  O53  1  0.04901000  0.87761000  0.68256000  1.0 -0.2006460677
O  O54  1  0.95099000  0.12239000  0.18256000  1.0 -0.1909543774
O  O55  1  0.37761000  0.45099000  0.43256000  1.0 -0.2006460677
O  O56  1  0.62239000  0.54901000  0.93256000  1.0 -0.2006460677
O  O57  1  0.62983000  0.62983000  0.50000000  1.0 -0.265254141
O  O58  1  0.37017000  0.37017000  0.00000000  1.0 -0.265254141
O  O59  1  0.87017000  0.12983000  0.75000000  1.0 -0.265254141
O  O60  1  0.12983000  0.87017000  0.25000000  1.0 -0.265254141
O  O61  1  0.48697000  0.48697000  0.50000000  1.0 -0.9063555162
O  O62  1  0.51303000  0.51303000  0.00000000  1.0 -0.9063555162
O  O63  1  0.01303000  0.98697000  0.75000000  1.0 -0.9063555162
O  O64  1  0.98697000  0.01303000  0.25000000  1.0 -0.9063555162
