# DDEC6 charges by PACMAN v1.1 (https://github.com/mtap-research/PACMAN-charge/)
data_2017[Al][skl]3[FSR]1
_chemical_formula_sum              "Al16 H168 C272 O80"
_cell_length_a       19.1813
_cell_length_b       19.1813
_cell_length_c       36.6658
_cell_angle_alpha    90
_cell_angle_beta     90
_cell_angle_gamma    90

_symmetry_space_group_name_H-M    "P 1"
_symmetry_Int_Tables_number       1

loop_
  _symmetry_equiv_pos_as_xyz
  'x, y, z'

loop_
  _atom_site_type_symbol
  _atom_site_label
  _atom_site_symmetry_multiplicity
  _atom_site_fract_x
  _atom_site_fract_y
  _atom_site_fract_z
  _atom_site_occupancy
  _atom_site_charge
Al  Al1       1.0  0.66084  0.33916  0.50000  1.0000 1.6524196356
Al  Al2       1.0  0.16084  0.16084  0.00000  1.0000 1.6524196356
Al  Al3       1.0  0.33916  0.66084  0.50000  1.0000 1.6524196356
Al  Al4       1.0  0.83916  0.83916  0.00000  1.0000 1.6524196356
Al  Al5       1.0  0.62547  0.40189  0.41741  1.0000 1.6419953196
Al  Al6       1.0  0.09811  0.12547  0.91741  1.0000 1.6419953196
Al  Al7       1.0  0.37453  0.59811  0.41741  1.0000 1.6419953196
Al  Al8       1.0  0.90189  0.87453  0.91741  1.0000 1.6419953196
Al  Al9       1.0  0.12547  0.09811  0.08259  1.0000 1.6419953196
Al  Al10      1.0  0.87453  0.90189  0.08259  1.0000 1.6419953196
Al  Al11      1.0  0.40189  0.62547  0.58259  1.0000 1.6419953196
Al  Al12      1.0  0.59811  0.37453  0.58259  1.0000 1.6419953196
Al  Al13      1.0  0.50000  0.50000  0.38289  1.0000 1.6524196356
Al  Al14      1.0  0.00000  0.00000  0.88289  1.0000 1.6524196356
Al  Al15      1.0  0.00000  0.00000  0.11711  1.0000 1.6524196356
Al  Al16      1.0  0.50000  0.50000  0.61711  1.0000 1.6524196356
H   H1        1.0  0.57010  0.50720  0.43780  1.0000 0.4222349278
H   H2        1.0  0.99280  0.07010  0.93780  1.0000 0.4222349278
H   H3        1.0  0.42990  0.49280  0.43780  1.0000 0.4222349278
H   H4        1.0  0.00720  0.92990  0.93780  1.0000 0.4222349278
H   H5        1.0  0.07010  0.99280  0.06220  1.0000 0.4222349278
H   H6        1.0  0.92990  0.00720  0.06220  1.0000 0.4222349278
H   H7        1.0  0.50720  0.57010  0.56220  1.0000 0.4222349278
H   H8        1.0  0.49280  0.42990  0.56220  1.0000 0.4222349278
H   H9        1.0  0.55440  0.37690  0.47050  1.0000 0.4222349278
H   H10       1.0  0.12310  0.05440  0.97050  1.0000 0.4222349278
H   H11       1.0  0.44560  0.62310  0.47050  1.0000 0.4222349278
H   H12       1.0  0.87690  0.94560  0.97050  1.0000 0.4222349278
H   H13       1.0  0.05440  0.12310  0.02950  1.0000 0.4222349278
H   H14       1.0  0.94560  0.87690  0.02950  1.0000 0.4222349278
H   H15       1.0  0.37690  0.55440  0.52950  1.0000 0.4222349278
H   H16       1.0  0.62310  0.44560  0.52950  1.0000 0.4222349278
H   H17       1.0  0.80900  0.64580  0.17050  1.0000 0.1121082757
H   H18       1.0  0.85420  0.30900  0.67050  1.0000 0.1121082757
H   H19       1.0  0.19100  0.35420  0.17050  1.0000 0.1121082757
H   H20       1.0  0.14580  0.69100  0.67050  1.0000 0.1121082757
H   H21       1.0  0.30900  0.85420  0.32950  1.0000 0.1121082757
H   H22       1.0  0.69100  0.14580  0.32950  1.0000 0.1121082757
H   H23       1.0  0.64580  0.80900  0.82950  1.0000 0.1121082757
H   H24       1.0  0.35420  0.19100  0.82950  1.0000 0.1121082757
H   H25       1.0  0.79490  0.63790  0.04510  1.0000 0.129744384
H   H26       1.0  0.86210  0.29490  0.54510  1.0000 0.129744384
H   H27       1.0  0.20510  0.36210  0.04510  1.0000 0.129744384
H   H28       1.0  0.13790  0.70510  0.54510  1.0000 0.129744384
H   H29       1.0  0.29490  0.86210  0.45490  1.0000 0.129744384
H   H30       1.0  0.70510  0.13790  0.45490  1.0000 0.129744384
H   H31       1.0  0.63790  0.79490  0.95490  1.0000 0.129744384
H   H32       1.0  0.36210  0.20510  0.95490  1.0000 0.129744384
H   H33       1.0  0.81030  0.74840  0.13780  1.0000 0.129744384
H   H34       1.0  0.75160  0.31030  0.63780  1.0000 0.129744384
H   H35       1.0  0.18970  0.25160  0.13780  1.0000 0.129744384
H   H36       1.0  0.24840  0.68970  0.63780  1.0000 0.129744384
H   H37       1.0  0.31030  0.75160  0.36220  1.0000 0.129744384
H   H38       1.0  0.68970  0.24840  0.36220  1.0000 0.129744384
H   H39       1.0  0.74840  0.81030  0.86220  1.0000 0.129744384
H   H40       1.0  0.25160  0.18970  0.86220  1.0000 0.129744384
H   H41       1.0  0.79600  0.53580  0.07710  1.0000 0.1185821762
H   H42       1.0  0.96420  0.29600  0.57710  1.0000 0.1185821762
H   H43       1.0  0.20400  0.46420  0.07710  1.0000 0.1185821762
H   H44       1.0  0.03580  0.70400  0.57710  1.0000 0.1185821762
H   H45       1.0  0.29600  0.96420  0.42290  1.0000 0.1185821762
H   H46       1.0  0.70400  0.03580  0.42290  1.0000 0.1185821762
H   H47       1.0  0.53580  0.79600  0.92290  1.0000 0.1185821762
H   H48       1.0  0.46420  0.20400  0.92290  1.0000 0.1185821762
H   H49       1.0  0.58850  0.50680  0.27910  1.0000 0.129744384
H   H50       1.0  0.99320  0.08850  0.77910  1.0000 0.129744384
H   H51       1.0  0.41150  0.49320  0.27910  1.0000 0.129744384
H   H52       1.0  0.00680  0.91150  0.77910  1.0000 0.129744384
H   H53       1.0  0.08850  0.99320  0.22090  1.0000 0.129744384
H   H54       1.0  0.91150  0.00680  0.22090  1.0000 0.129744384
H   H55       1.0  0.50680  0.58850  0.72090  1.0000 0.129744384
H   H56       1.0  0.49320  0.41150  0.72090  1.0000 0.129744384
H   H57       1.0  0.87240  0.16220  0.14640  1.0000 0.129744384
H   H58       1.0  0.33780  0.37240  0.64640  1.0000 0.129744384
H   H59       1.0  0.12760  0.83780  0.14640  1.0000 0.129744384
H   H60       1.0  0.66220  0.62760  0.64640  1.0000 0.129744384
H   H61       1.0  0.37240  0.33780  0.35360  1.0000 0.129744384
H   H62       1.0  0.62760  0.66220  0.35360  1.0000 0.129744384
H   H63       1.0  0.16220  0.87240  0.85360  1.0000 0.129744384
H   H64       1.0  0.83780  0.12760  0.85360  1.0000 0.129744384
H   H65       1.0  0.02860  0.28510  0.11180  1.0000 0.1185821762
H   H66       1.0  0.21490  0.52860  0.61180  1.0000 0.1185821762
H   H67       1.0  0.97140  0.71490  0.11180  1.0000 0.1185821762
H   H68       1.0  0.78510  0.47140  0.61180  1.0000 0.1185821762
H   H69       1.0  0.52860  0.21490  0.38820  1.0000 0.1185821762
H   H70       1.0  0.47140  0.78510  0.38820  1.0000 0.1185821762
H   H71       1.0  0.28510  0.02860  0.88820  1.0000 0.1185821762
H   H72       1.0  0.71490  0.97140  0.88820  1.0000 0.1185821762
H   H73       1.0  0.74390  0.39560  0.32380  1.0000 0.129744384
H   H74       1.0  0.10440  0.24390  0.82380  1.0000 0.129744384
H   H75       1.0  0.25610  0.60440  0.32380  1.0000 0.129744384
H   H76       1.0  0.89560  0.75610  0.82380  1.0000 0.129744384
H   H77       1.0  0.24390  0.10440  0.17620  1.0000 0.129744384
H   H78       1.0  0.75610  0.89560  0.17620  1.0000 0.129744384
H   H79       1.0  0.39560  0.74390  0.67620  1.0000 0.129744384
H   H80       1.0  0.60440  0.25610  0.67620  1.0000 0.129744384
H   H81       1.0  0.80390  0.39910  0.26930  1.0000 0.1121082757
H   H82       1.0  0.10090  0.30390  0.76930  1.0000 0.1121082757
H   H83       1.0  0.19610  0.60090  0.26930  1.0000 0.1121082757
H   H84       1.0  0.89910  0.69610  0.76930  1.0000 0.1121082757
H   H85       1.0  0.30390  0.10090  0.23070  1.0000 0.1121082757
H   H86       1.0  0.69610  0.89910  0.23070  1.0000 0.1121082757
H   H87       1.0  0.39910  0.80390  0.73070  1.0000 0.1121082757
H   H88       1.0  0.60090  0.19610  0.73070  1.0000 0.1121082757
H   H89       1.0  0.64480  0.50650  0.22420  1.0000 0.1121082757
H   H90       1.0  0.99350  0.14480  0.72420  1.0000 0.1121082757
H   H91       1.0  0.35520  0.49350  0.22420  1.0000 0.1121082757
H   H92       1.0  0.00650  0.85520  0.72420  1.0000 0.1121082757
H   H93       1.0  0.14480  0.99350  0.27580  1.0000 0.1121082757
H   H94       1.0  0.85520  0.00650  0.27580  1.0000 0.1121082757
H   H95       1.0  0.50650  0.64480  0.77580  1.0000 0.1121082757
H   H96       1.0  0.49350  0.35520  0.77580  1.0000 0.1121082757
H   H97       1.0  0.74280  0.55100  0.19130  1.0000 0.1121082757
H   H98       1.0  0.94900  0.24280  0.69130  1.0000 0.1121082757
H   H99       1.0  0.25720  0.44900  0.19130  1.0000 0.1121082757
H   H100      1.0  0.05100  0.75720  0.69130  1.0000 0.1121082757
H   H101      1.0  0.24280  0.94900  0.30870  1.0000 0.1121082757
H   H102      1.0  0.75720  0.05100  0.30870  1.0000 0.1121082757
H   H103      1.0  0.55100  0.74280  0.80870  1.0000 0.1121082757
H   H104      1.0  0.44900  0.25720  0.80870  1.0000 0.1121082757
H   H105      1.0  0.96480  0.38280  0.12640  1.0000 0.1121082757
H   H106      1.0  0.11720  0.46480  0.62640  1.0000 0.1121082757
H   H107      1.0  0.03520  0.61720  0.12640  1.0000 0.1121082757
H   H108      1.0  0.88280  0.53520  0.62640  1.0000 0.1121082757
H   H109      1.0  0.46480  0.11720  0.37360  1.0000 0.1121082757
H   H110      1.0  0.53520  0.88280  0.37360  1.0000 0.1121082757
H   H111      1.0  0.38280  0.96480  0.87360  1.0000 0.1121082757
H   H112      1.0  0.61720  0.03520  0.87360  1.0000 0.1121082757
H   H113      1.0  0.81010  0.26140  0.16380  1.0000 0.1121082757
H   H114      1.0  0.23860  0.31010  0.66380  1.0000 0.1121082757
H   H115      1.0  0.18990  0.73860  0.16380  1.0000 0.1121082757
H   H116      1.0  0.76140  0.68990  0.66380  1.0000 0.1121082757
H   H117      1.0  0.31010  0.23860  0.33620  1.0000 0.1121082757
H   H118      1.0  0.68990  0.76140  0.33620  1.0000 0.1121082757
H   H119      1.0  0.26140  0.81010  0.83620  1.0000 0.1121082757
H   H120      1.0  0.73860  0.18990  0.83620  1.0000 0.1121082757
H   H121      1.0  0.86440  0.45650  0.11690  1.0000 0.1121082757
H   H122      1.0  0.04350  0.36440  0.61690  1.0000 0.1121082757
H   H123      1.0  0.13560  0.54350  0.11690  1.0000 0.1121082757
H   H124      1.0  0.95650  0.63560  0.61690  1.0000 0.1121082757
H   H125      1.0  0.36440  0.04350  0.38310  1.0000 0.1121082757
H   H126      1.0  0.63560  0.95650  0.38310  1.0000 0.1121082757
H   H127      1.0  0.45650  0.86440  0.88310  1.0000 0.1121082757
H   H128      1.0  0.54350  0.13560  0.88310  1.0000 0.1121082757
H   H129      1.0  0.80580  0.35450  0.20760  1.0000 0.1121082757
H   H130      1.0  0.14550  0.30580  0.70760  1.0000 0.1121082757
H   H131      1.0  0.19420  0.64550  0.20760  1.0000 0.1121082757
H   H132      1.0  0.85450  0.69420  0.70760  1.0000 0.1121082757
H   H133      1.0  0.30580  0.14550  0.29240  1.0000 0.1121082757
H   H134      1.0  0.69420  0.85450  0.29240  1.0000 0.1121082757
H   H135      1.0  0.35450  0.80580  0.79240  1.0000 0.1121082757
H   H136      1.0  0.64550  0.19420  0.79240  1.0000 0.1121082757
H   H137      1.0  0.82050  0.50100  0.40550  1.0000 0.1355105112
H   H138      1.0  0.99900  0.32050  0.90550  1.0000 0.1355105112
H   H139      1.0  0.17950  0.49900  0.40550  1.0000 0.1355105112
H   H140      1.0  0.00100  0.67950  0.90550  1.0000 0.1355105112
H   H141      1.0  0.32050  0.99900  0.09450  1.0000 0.1355105112
H   H142      1.0  0.67950  0.00100  0.09450  1.0000 0.1355105112
H   H143      1.0  0.50100  0.82050  0.59450  1.0000 0.1355105112
H   H144      1.0  0.49900  0.17950  0.59450  1.0000 0.1355105112
H   H145      1.0  0.93860  0.52200  0.40230  1.0000 0.1185821762
H   H146      1.0  0.97800  0.43860  0.90230  1.0000 0.1185821762
H   H147      1.0  0.06140  0.47800  0.40230  1.0000 0.1185821762
H   H148      1.0  0.02200  0.56140  0.90230  1.0000 0.1185821762
H   H149      1.0  0.43860  0.97800  0.09770  1.0000 0.1185821762
H   H150      1.0  0.56140  0.02200  0.09770  1.0000 0.1185821762
H   H151      1.0  0.52200  0.93860  0.59770  1.0000 0.1185821762
H   H152      1.0  0.47800  0.06140  0.59770  1.0000 0.1185821762
H   H153      1.0  0.84650  0.42340  0.50580  1.0000 0.129744384
H   H154      1.0  0.07660  0.34650  0.00580  1.0000 0.129744384
H   H155      1.0  0.15350  0.57660  0.50580  1.0000 0.129744384
H   H156      1.0  0.92340  0.65350  0.00580  1.0000 0.129744384
H   H157      1.0  0.34650  0.07660  0.99420  1.0000 0.129744384
H   H158      1.0  0.65350  0.92340  0.99420  1.0000 0.129744384
H   H159      1.0  0.42340  0.84650  0.49420  1.0000 0.129744384
H   H160      1.0  0.57660  0.15350  0.49420  1.0000 0.129744384
H   H161      1.0  0.96180  0.45670  0.50400  1.0000 0.1121082757
H   H162      1.0  0.04330  0.46180  0.00400  1.0000 0.1121082757
H   H163      1.0  0.03820  0.54330  0.50400  1.0000 0.1121082757
H   H164      1.0  0.95670  0.53820  0.00400  1.0000 0.1121082757
H   H165      1.0  0.46180  0.04330  0.99600  1.0000 0.1121082757
H   H166      1.0  0.53820  0.95670  0.99600  1.0000 0.1121082757
H   H167      1.0  0.45670  0.96180  0.49600  1.0000 0.1121082757
H   H168      1.0  0.54330  0.03820  0.49600  1.0000 0.1121082757
C   C1        1.0  0.62386  0.45164  0.34305  1.0000 0.6249853461
C   C2        1.0  0.04836  0.12386  0.84305  1.0000 0.6249853461
C   C3        1.0  0.37614  0.54836  0.34305  1.0000 0.6249853461
C   C4        1.0  0.95164  0.87614  0.84305  1.0000 0.6249853461
C   C5        1.0  0.12386  0.04836  0.15695  1.0000 0.6249853461
C   C6        1.0  0.87614  0.95164  0.15695  1.0000 0.6249853461
C   C7        1.0  0.45164  0.62386  0.65695  1.0000 0.6249853461
C   C8        1.0  0.54836  0.37614  0.65695  1.0000 0.6249853461
C   C9        1.0  0.80679  0.64373  0.14517  1.0000 -0.1437503918
C   C10       1.0  0.85627  0.30679  0.64517  1.0000 -0.1437503918
C   C11       1.0  0.19321  0.35627  0.14517  1.0000 -0.1437503918
C   C12       1.0  0.14373  0.69321  0.64517  1.0000 -0.1437503918
C   C13       1.0  0.30679  0.85627  0.35483  1.0000 -0.1437503918
C   C14       1.0  0.69321  0.14373  0.35483  1.0000 -0.1437503918
C   C15       1.0  0.64373  0.80679  0.85483  1.0000 -0.1437503918
C   C16       1.0  0.35627  0.19321  0.85483  1.0000 -0.1437503918
C   C17       1.0  0.79828  0.63912  0.07036  1.0000 -0.1016810243
C   C18       1.0  0.86088  0.29828  0.57036  1.0000 -0.1016810243
C   C19       1.0  0.20172  0.36088  0.07036  1.0000 -0.1016810243
C   C20       1.0  0.13912  0.70172  0.57036  1.0000 -0.1016810243
C   C21       1.0  0.29828  0.86088  0.42964  1.0000 -0.1016810243
C   C22       1.0  0.70172  0.13912  0.42964  1.0000 -0.1016810243
C   C23       1.0  0.63912  0.79828  0.92964  1.0000 -0.1016810243
C   C24       1.0  0.36088  0.20172  0.92964  1.0000 -0.1016810243
C   C25       1.0  0.99542  0.15134  0.11554  1.0000 0.6308879345
C   C26       1.0  0.34866  0.49542  0.61554  1.0000 0.6308879345
C   C27       1.0  0.00458  0.84866  0.11554  1.0000 0.6308879345
C   C28       1.0  0.65134  0.50458  0.61554  1.0000 0.6308879345
C   C29       1.0  0.49542  0.34866  0.38446  1.0000 0.6308879345
C   C30       1.0  0.50458  0.65134  0.38446  1.0000 0.6308879345
C   C31       1.0  0.15134  0.99542  0.88446  1.0000 0.6308879345
C   C32       1.0  0.84866  0.00458  0.88446  1.0000 0.6308879345
C   C33       1.0  0.80717  0.70584  0.12575  1.0000 -0.0901372131
C   C34       1.0  0.79416  0.30717  0.62575  1.0000 -0.0901372131
C   C35       1.0  0.19283  0.29416  0.12575  1.0000 -0.0901372131
C   C36       1.0  0.20584  0.69283  0.62575  1.0000 -0.0901372131
C   C37       1.0  0.30717  0.79416  0.37425  1.0000 -0.0901372131
C   C38       1.0  0.69283  0.20584  0.37425  1.0000 -0.0901372131
C   C39       1.0  0.70584  0.80717  0.87425  1.0000 -0.0901372131
C   C40       1.0  0.29416  0.19283  0.87425  1.0000 -0.0901372131
C   C41       1.0  0.79867  0.57814  0.08942  1.0000 -0.1498049934
C   C42       1.0  0.92186  0.29867  0.58942  1.0000 -0.1498049934
C   C43       1.0  0.20133  0.42186  0.08942  1.0000 -0.1498049934
C   C44       1.0  0.07814  0.70133  0.58942  1.0000 -0.1498049934
C   C45       1.0  0.29867  0.92186  0.41058  1.0000 -0.1498049934
C   C46       1.0  0.70133  0.07814  0.41058  1.0000 -0.1498049934
C   C47       1.0  0.57814  0.79867  0.91058  1.0000 -0.1498049934
C   C48       1.0  0.42186  0.20133  0.91058  1.0000 -0.1498049934
C   C49       1.0  0.80285  0.70346  0.08814  1.0000 -0.0430018925
C   C50       1.0  0.79654  0.30285  0.58814  1.0000 -0.0430018925
C   C51       1.0  0.19715  0.29654  0.08814  1.0000 -0.0430018925
C   C52       1.0  0.20346  0.69715  0.58814  1.0000 -0.0430018925
C   C53       1.0  0.30285  0.79654  0.41186  1.0000 -0.0430018925
C   C54       1.0  0.69715  0.20346  0.41186  1.0000 -0.0430018925
C   C55       1.0  0.70346  0.80285  0.91186  1.0000 -0.0430018925
C   C56       1.0  0.29654  0.19715  0.91186  1.0000 -0.0430018925
C   C57       1.0  0.80767  0.77002  0.06738  1.0000 0.6249853461
C   C58       1.0  0.72998  0.30767  0.56738  1.0000 0.6249853461
C   C59       1.0  0.19233  0.22998  0.06738  1.0000 0.6249853461
C   C60       1.0  0.27002  0.69233  0.56738  1.0000 0.6249853461
C   C61       1.0  0.30767  0.72998  0.43262  1.0000 0.6249853461
C   C62       1.0  0.69233  0.27002  0.43262  1.0000 0.6249853461
C   C63       1.0  0.77002  0.80767  0.93262  1.0000 0.6249853461
C   C64       1.0  0.22998  0.19233  0.93262  1.0000 0.6249853461
C   C65       1.0  0.95633  0.21430  0.12688  1.0000 -0.056260847
C   C66       1.0  0.28570  0.45633  0.62688  1.0000 -0.056260847
C   C67       1.0  0.04367  0.78570  0.12688  1.0000 -0.056260847
C   C68       1.0  0.71430  0.54367  0.62688  1.0000 -0.056260847
C   C69       1.0  0.45633  0.28570  0.37312  1.0000 -0.056260847
C   C70       1.0  0.54367  0.71430  0.37312  1.0000 -0.056260847
C   C71       1.0  0.21430  0.95633  0.87312  1.0000 -0.056260847
C   C72       1.0  0.78570  0.04367  0.87312  1.0000 -0.056260847
C   C73       1.0  0.63142  0.48467  0.27702  1.0000 -0.0901372131
C   C74       1.0  0.01533  0.13142  0.77702  1.0000 -0.0901372131
C   C75       1.0  0.36858  0.51533  0.27702  1.0000 -0.0901372131
C   C76       1.0  0.98467  0.86858  0.77702  1.0000 -0.0901372131
C   C77       1.0  0.13142  0.01533  0.22298  1.0000 -0.0901372131
C   C78       1.0  0.86858  0.98467  0.22298  1.0000 -0.0901372131
C   C79       1.0  0.48467  0.63142  0.72298  1.0000 -0.0901372131
C   C80       1.0  0.51533  0.36858  0.72298  1.0000 -0.0901372131
C   C81       1.0  0.80326  0.57923  0.12879  1.0000 0.0710221321
C   C82       1.0  0.92077  0.30326  0.62879  1.0000 0.0710221321
C   C83       1.0  0.19674  0.42077  0.12879  1.0000 0.0710221321
C   C84       1.0  0.07923  0.69674  0.62879  1.0000 0.0710221321
C   C85       1.0  0.30326  0.92077  0.37121  1.0000 0.0710221321
C   C86       1.0  0.69674  0.07923  0.37121  1.0000 0.0710221321
C   C87       1.0  0.57923  0.80326  0.87121  1.0000 0.0710221321
C   C88       1.0  0.42077  0.19674  0.87121  1.0000 0.0710221321
C   C89       1.0  0.73058  0.45222  0.24056  1.0000 0.0818671384
C   C90       1.0  0.04778  0.23058  0.74056  1.0000 0.0818671384
C   C91       1.0  0.26942  0.54778  0.24056  1.0000 0.0818671384
C   C92       1.0  0.95222  0.76942  0.74056  1.0000 0.0818671384
C   C93       1.0  0.23058  0.04778  0.25944  1.0000 0.0818671384
C   C94       1.0  0.76942  0.95222  0.25944  1.0000 0.0818671384
C   C95       1.0  0.45222  0.73058  0.75944  1.0000 0.0818671384
C   C96       1.0  0.54778  0.26942  0.75944  1.0000 0.0818671384
C   C97       1.0  0.89113  0.20632  0.14280  1.0000 -0.0901372131
C   C98       1.0  0.29368  0.39113  0.64280  1.0000 -0.0901372131
C   C99       1.0  0.10887  0.79368  0.14280  1.0000 -0.0901372131
C   C100      1.0  0.70632  0.60887  0.64280  1.0000 -0.0901372131
C   C101      1.0  0.39113  0.29368  0.35720  1.0000 -0.0901372131
C   C102      1.0  0.60887  0.70632  0.35720  1.0000 -0.0901372131
C   C103      1.0  0.20632  0.89113  0.85720  1.0000 -0.0901372131
C   C104      1.0  0.79368  0.10887  0.85720  1.0000 -0.0901372131
C   C105      1.0  0.76833  0.45277  0.20498  1.0000 0.0710221321
C   C106      1.0  0.04723  0.26833  0.70498  1.0000 0.0710221321
C   C107      1.0  0.23167  0.54723  0.20498  1.0000 0.0710221321
C   C108      1.0  0.95277  0.73167  0.70498  1.0000 0.0710221321
C   C109      1.0  0.26833  0.04723  0.29502  1.0000 0.0710221321
C   C110      1.0  0.73167  0.95277  0.29502  1.0000 0.0710221321
C   C111      1.0  0.45277  0.76833  0.79502  1.0000 0.0710221321
C   C112      1.0  0.54723  0.23167  0.79502  1.0000 0.0710221321
C   C113      1.0  0.66043  0.45175  0.30760  1.0000 -0.0673553408
C   C114      1.0  0.04825  0.16043  0.80760  1.0000 -0.0673553408
C   C115      1.0  0.33957  0.54825  0.30760  1.0000 -0.0673553408
C   C116      1.0  0.95175  0.83957  0.80760  1.0000 -0.0673553408
C   C117      1.0  0.16043  0.04825  0.19240  1.0000 -0.0673553408
C   C118      1.0  0.83957  0.95175  0.19240  1.0000 -0.0673553408
C   C119      1.0  0.45175  0.66043  0.69240  1.0000 -0.0673553408
C   C120      1.0  0.54825  0.33957  0.69240  1.0000 -0.0673553408
C   C121      1.0  0.98430  0.28024  0.12178  1.0000 -0.0901372131
C   C122      1.0  0.21976  0.48430  0.62178  1.0000 -0.0901372131
C   C123      1.0  0.01570  0.71976  0.12178  1.0000 -0.0901372131
C   C124      1.0  0.78024  0.51570  0.62178  1.0000 -0.0901372131
C   C125      1.0  0.48430  0.21976  0.37822  1.0000 -0.0901372131
C   C126      1.0  0.51570  0.78024  0.37822  1.0000 -0.0901372131
C   C127      1.0  0.28024  0.98430  0.87822  1.0000 -0.0901372131
C   C128      1.0  0.71976  0.01570  0.87822  1.0000 -0.0901372131
C   C129      1.0  0.72466  0.41873  0.30396  1.0000 -0.0901372131
C   C130      1.0  0.08127  0.22466  0.80396  1.0000 -0.0901372131
C   C131      1.0  0.27534  0.58127  0.30396  1.0000 -0.0901372131
C   C132      1.0  0.91873  0.77534  0.80396  1.0000 -0.0901372131
C   C133      1.0  0.22466  0.08127  0.19604  1.0000 -0.0901372131
C   C134      1.0  0.77534  0.91873  0.19604  1.0000 -0.0901372131
C   C135      1.0  0.41873  0.72466  0.69604  1.0000 -0.0901372131
C   C136      1.0  0.58127  0.27534  0.69604  1.0000 -0.0901372131
C   C137      1.0  0.76020  0.41990  0.27109  1.0000 -0.1498049934
C   C138      1.0  0.08010  0.26020  0.77109  1.0000 -0.1498049934
C   C139      1.0  0.23980  0.58010  0.27109  1.0000 -0.1498049934
C   C140      1.0  0.91990  0.73980  0.77109  1.0000 -0.1498049934
C   C141      1.0  0.26020  0.08010  0.22891  1.0000 -0.1498049934
C   C142      1.0  0.73980  0.91990  0.22891  1.0000 -0.1498049934
C   C143      1.0  0.41990  0.76020  0.72891  1.0000 -0.1498049934
C   C144      1.0  0.58010  0.23980  0.72891  1.0000 -0.1498049934
C   C145      1.0  0.88242  0.33322  0.14826  1.0000 0.0710221321
C   C146      1.0  0.16678  0.38242  0.64826  1.0000 0.0710221321
C   C147      1.0  0.11758  0.66678  0.14826  1.0000 0.0710221321
C   C148      1.0  0.83322  0.61758  0.64826  1.0000 0.0710221321
C   C149      1.0  0.38242  0.16678  0.35174  1.0000 0.0710221321
C   C150      1.0  0.61758  0.83322  0.35174  1.0000 0.0710221321
C   C151      1.0  0.33322  0.88242  0.85174  1.0000 0.0710221321
C   C152      1.0  0.66678  0.11758  0.85174  1.0000 0.0710221321
C   C153      1.0  0.66516  0.48475  0.24426  1.0000 -0.1498049934
C   C154      1.0  0.01525  0.16516  0.74426  1.0000 -0.1498049934
C   C155      1.0  0.33484  0.51525  0.24426  1.0000 -0.1498049934
C   C156      1.0  0.98475  0.83484  0.74426  1.0000 -0.1498049934
C   C157      1.0  0.16516  0.01525  0.25574  1.0000 -0.1498049934
C   C158      1.0  0.83484  0.98475  0.25574  1.0000 -0.1498049934
C   C159      1.0  0.48475  0.66516  0.75574  1.0000 -0.1498049934
C   C160      1.0  0.51525  0.33484  0.75574  1.0000 -0.1498049934
C   C161      1.0  0.76759  0.51216  0.18353  1.0000 -0.201168925
C   C162      1.0  0.98784  0.26759  0.68353  1.0000 -0.201168925
C   C163      1.0  0.23241  0.48784  0.18353  1.0000 -0.201168925
C   C164      1.0  0.01216  0.73241  0.68353  1.0000 -0.201168925
C   C165      1.0  0.26759  0.98784  0.31647  1.0000 -0.201168925
C   C166      1.0  0.73241  0.01216  0.31647  1.0000 -0.201168925
C   C167      1.0  0.51216  0.76759  0.81647  1.0000 -0.201168925
C   C168      1.0  0.48784  0.23241  0.81647  1.0000 -0.201168925
C   C169      1.0  0.94664  0.33885  0.13140  1.0000 -0.1437503918
C   C170      1.0  0.16115  0.44664  0.63140  1.0000 -0.1437503918
C   C171      1.0  0.05336  0.66115  0.13140  1.0000 -0.1437503918
C   C172      1.0  0.83885  0.55336  0.63140  1.0000 -0.1437503918
C   C173      1.0  0.44664  0.16115  0.36860  1.0000 -0.1437503918
C   C174      1.0  0.55336  0.83885  0.36860  1.0000 -0.1437503918
C   C175      1.0  0.33885  0.94664  0.86860  1.0000 -0.1437503918
C   C176      1.0  0.66115  0.05336  0.86860  1.0000 -0.1437503918
C   C177      1.0  0.84219  0.39478  0.15980  1.0000 0.0818671384
C   C178      1.0  0.10522  0.34219  0.65980  1.0000 0.0818671384
C   C179      1.0  0.15781  0.60522  0.15980  1.0000 0.0818671384
C   C180      1.0  0.89478  0.65781  0.65980  1.0000 0.0818671384
C   C181      1.0  0.34219  0.10522  0.34020  1.0000 0.0818671384
C   C182      1.0  0.65781  0.89478  0.34020  1.0000 0.0818671384
C   C183      1.0  0.39478  0.84219  0.84020  1.0000 0.0818671384
C   C184      1.0  0.60522  0.15781  0.84020  1.0000 0.0818671384
C   C185      1.0  0.85403  0.26615  0.15333  1.0000 -0.1498049934
C   C186      1.0  0.23385  0.35403  0.65333  1.0000 -0.1498049934
C   C187      1.0  0.14597  0.73385  0.15333  1.0000 -0.1498049934
C   C188      1.0  0.76615  0.64597  0.65333  1.0000 -0.1498049934
C   C189      1.0  0.35403  0.23385  0.34667  1.0000 -0.1498049934
C   C190      1.0  0.64597  0.76615  0.34667  1.0000 -0.1498049934
C   C191      1.0  0.26615  0.85403  0.84667  1.0000 -0.1498049934
C   C192      1.0  0.73385  0.14597  0.84667  1.0000 -0.1498049934
C   C193      1.0  0.80413  0.51486  0.14974  1.0000 0.0710221321
C   C194      1.0  0.98514  0.30413  0.64974  1.0000 0.0710221321
C   C195      1.0  0.19587  0.48514  0.14974  1.0000 0.0710221321
C   C196      1.0  0.01486  0.69587  0.64974  1.0000 0.0710221321
C   C197      1.0  0.30413  0.98514  0.35026  1.0000 0.0710221321
C   C198      1.0  0.69587  0.01486  0.35026  1.0000 0.0710221321
C   C199      1.0  0.51486  0.80413  0.85026  1.0000 0.0710221321
C   C200      1.0  0.48514  0.19587  0.85026  1.0000 0.0710221321
C   C201      1.0  0.84041  0.45557  0.13893  1.0000 -0.201168925
C   C202      1.0  0.04443  0.34041  0.63893  1.0000 -0.201168925
C   C203      1.0  0.15959  0.54443  0.13893  1.0000 -0.201168925
C   C204      1.0  0.95557  0.65959  0.63893  1.0000 -0.201168925
C   C205      1.0  0.34041  0.04443  0.36107  1.0000 -0.201168925
C   C206      1.0  0.65959  0.95557  0.36107  1.0000 -0.201168925
C   C207      1.0  0.45557  0.84041  0.86107  1.0000 -0.201168925
C   C208      1.0  0.54443  0.15959  0.86107  1.0000 -0.201168925
C   C209      1.0  0.80533  0.39444  0.19322  1.0000 -0.2058883947
C   C210      1.0  0.10556  0.30533  0.69322  1.0000 -0.2058883947
C   C211      1.0  0.19467  0.60556  0.19322  1.0000 -0.2058883947
C   C212      1.0  0.89444  0.69467  0.69322  1.0000 -0.2058883947
C   C213      1.0  0.30533  0.10556  0.30678  1.0000 -0.2058883947
C   C214      1.0  0.69467  0.89444  0.30678  1.0000 -0.2058883947
C   C215      1.0  0.39444  0.80533  0.80678  1.0000 -0.2058883947
C   C216      1.0  0.60556  0.19467  0.80678  1.0000 -0.2058883947
C   C217      1.0  0.74640  0.43888  0.45825  1.0000 0.6308879345
C   C218      1.0  0.06112  0.24640  0.95825  1.0000 0.6308879345
C   C219      1.0  0.25360  0.56112  0.45825  1.0000 0.6308879345
C   C220      1.0  0.93888  0.75360  0.95825  1.0000 0.6308879345
C   C221      1.0  0.24640  0.06112  0.04175  1.0000 0.6308879345
C   C222      1.0  0.75360  0.93888  0.04175  1.0000 0.6308879345
C   C223      1.0  0.43888  0.74640  0.54175  1.0000 0.6308879345
C   C224      1.0  0.56112  0.25360  0.54175  1.0000 0.6308879345
C   C225      1.0  0.84879  0.49012  0.42526  1.0000 -0.0901372131
C   C226      1.0  0.00988  0.34879  0.92526  1.0000 -0.0901372131
C   C227      1.0  0.15121  0.50988  0.42526  1.0000 -0.0901372131
C   C228      1.0  0.99012  0.65121  0.92526  1.0000 -0.0901372131
C   C229      1.0  0.34879  0.00988  0.07474  1.0000 -0.0901372131
C   C230      1.0  0.65121  0.99012  0.07474  1.0000 -0.0901372131
C   C231      1.0  0.49012  0.84879  0.57474  1.0000 -0.0901372131
C   C232      1.0  0.50988  0.15121  0.57474  1.0000 -0.0901372131
C   C233      1.0  0.82032  0.46011  0.45554  1.0000 -0.056260847
C   C234      1.0  0.03989  0.32032  0.95554  1.0000 -0.056260847
C   C235      1.0  0.17968  0.53989  0.45554  1.0000 -0.056260847
C   C236      1.0  0.96011  0.67968  0.95554  1.0000 -0.056260847
C   C237      1.0  0.32032  0.03989  0.04446  1.0000 -0.056260847
C   C238      1.0  0.67968  0.96011  0.04446  1.0000 -0.056260847
C   C239      1.0  0.46011  0.82032  0.54446  1.0000 -0.056260847
C   C240      1.0  0.53989  0.17968  0.54446  1.0000 -0.056260847
C   C241      1.0  0.91957  0.50445  0.42377  1.0000 -0.1437503918
C   C242      1.0  0.99555  0.41957  0.92377  1.0000 -0.1437503918
C   C243      1.0  0.08043  0.49555  0.42377  1.0000 -0.1437503918
C   C244      1.0  0.00445  0.58043  0.92377  1.0000 -0.1437503918
C   C245      1.0  0.41957  0.99555  0.07623  1.0000 -0.1437503918
C   C246      1.0  0.58043  0.00445  0.07623  1.0000 -0.1437503918
C   C247      1.0  0.50445  0.91957  0.57623  1.0000 -0.1437503918
C   C248      1.0  0.49555  0.08043  0.57623  1.0000 -0.1437503918
C   C249      1.0  0.86419  0.44554  0.48518  1.0000 -0.0901372131
C   C250      1.0  0.05446  0.36419  0.98518  1.0000 -0.0901372131
C   C251      1.0  0.13581  0.55446  0.48518  1.0000 -0.0901372131
C   C252      1.0  0.94554  0.63581  0.98518  1.0000 -0.0901372131
C   C253      1.0  0.36419  0.05446  0.01482  1.0000 -0.0901372131
C   C254      1.0  0.63581  0.94554  0.01482  1.0000 -0.0901372131
C   C255      1.0  0.44554  0.86419  0.51482  1.0000 -0.0901372131
C   C256      1.0  0.55446  0.13581  0.51482  1.0000 -0.0901372131
C   C257      1.0  0.96209  0.49330  0.45329  1.0000 0.0710221321
C   C258      1.0  0.00670  0.46209  0.95329  1.0000 0.0710221321
C   C259      1.0  0.03791  0.50670  0.45329  1.0000 0.0710221321
C   C260      1.0  0.99330  0.53791  0.95329  1.0000 0.0710221321
C   C261      1.0  0.46209  0.00670  0.04671  1.0000 0.0710221321
C   C262      1.0  0.53791  0.99330  0.04671  1.0000 0.0710221321
C   C263      1.0  0.49330  0.96209  0.54671  1.0000 0.0710221321
C   C264      1.0  0.50670  0.03791  0.54671  1.0000 0.0710221321
C   C265      1.0  0.93374  0.46419  0.48373  1.0000 -0.1498049934
C   C266      1.0  0.03581  0.43374  0.98373  1.0000 -0.1498049934
C   C267      1.0  0.06626  0.53581  0.48373  1.0000 -0.1498049934
C   C268      1.0  0.96419  0.56626  0.98373  1.0000 -0.1498049934
C   C269      1.0  0.43374  0.03581  0.01627  1.0000 -0.1498049934
C   C270      1.0  0.56626  0.96419  0.01627  1.0000 -0.1498049934
C   C271      1.0  0.46419  0.93374  0.51627  1.0000 -0.1498049934
C   C272      1.0  0.53581  0.06626  0.51627  1.0000 -0.1498049934
O   O1        1.0  0.56641  0.47726  0.41792  1.0000 -1.0087113888
O   O2        1.0  0.02274  0.06641  0.91792  1.0000 -1.0087113888
O   O3        1.0  0.43359  0.52274  0.41792  1.0000 -1.0087113888
O   O4        1.0  0.97726  0.93359  0.91792  1.0000 -1.0087113888
O   O5        1.0  0.06641  0.02274  0.08208  1.0000 -1.0087113888
O   O6        1.0  0.93359  0.97726  0.08208  1.0000 -1.0087113888
O   O7        1.0  0.47726  0.56641  0.58208  1.0000 -1.0087113888
O   O8        1.0  0.52274  0.43359  0.58208  1.0000 -1.0087113888
O   O9        1.0  0.65539  0.42287  0.36958  1.0000 -0.5879981522
O   O10       1.0  0.07713  0.15539  0.86958  1.0000 -0.5879981522
O   O11       1.0  0.34461  0.57713  0.36958  1.0000 -0.5879981522
O   O12       1.0  0.92287  0.84461  0.86958  1.0000 -0.5879981522
O   O13       1.0  0.15539  0.07713  0.13042  1.0000 -0.5879981522
O   O14       1.0  0.84461  0.92287  0.13042  1.0000 -0.5879981522
O   O15       1.0  0.42287  0.65539  0.63042  1.0000 -0.5879981522
O   O16       1.0  0.57713  0.34461  0.63042  1.0000 -0.5879981522
O   O17       1.0  0.60124  0.37349  0.46433  1.0000 -1.0026751296
O   O18       1.0  0.12651  0.10124  0.96433  1.0000 -1.0026751296
O   O19       1.0  0.39876  0.62651  0.46433  1.0000 -1.0026751296
O   O20       1.0  0.87349  0.89876  0.96433  1.0000 -1.0026751296
O   O21       1.0  0.10124  0.12651  0.03567  1.0000 -1.0026751296
O   O22       1.0  0.89876  0.87349  0.03567  1.0000 -1.0026751296
O   O23       1.0  0.37349  0.60124  0.53567  1.0000 -1.0026751296
O   O24       1.0  0.62651  0.39876  0.53567  1.0000 -1.0026751296
O   O25       1.0  0.56339  0.47868  0.34428  1.0000 -0.5879981522
O   O26       1.0  0.02132  0.06339  0.84428  1.0000 -0.5879981522
O   O27       1.0  0.43661  0.52132  0.34428  1.0000 -0.5879981522
O   O28       1.0  0.97868  0.93661  0.84428  1.0000 -0.5879981522
O   O29       1.0  0.06339  0.02132  0.15572  1.0000 -0.5879981522
O   O30       1.0  0.93661  0.97868  0.15572  1.0000 -0.5879981522
O   O31       1.0  0.47868  0.56339  0.65572  1.0000 -0.5879981522
O   O32       1.0  0.52132  0.43661  0.65572  1.0000 -0.5879981522
O   O33       1.0  0.81261  0.82534  0.08630  1.0000 -0.5879981522
O   O34       1.0  0.67466  0.31261  0.58630  1.0000 -0.5879981522
O   O35       1.0  0.18739  0.17466  0.08630  1.0000 -0.5879981522
O   O36       1.0  0.32534  0.68739  0.58630  1.0000 -0.5879981522
O   O37       1.0  0.31261  0.67466  0.41370  1.0000 -0.5879981522
O   O38       1.0  0.68739  0.32534  0.41370  1.0000 -0.5879981522
O   O39       1.0  0.82534  0.81261  0.91370  1.0000 -0.5879981522
O   O40       1.0  0.17466  0.18739  0.91370  1.0000 -0.5879981522
O   O41       1.0  0.73113  0.40087  0.48532  1.0000 -0.5979828746
O   O42       1.0  0.09913  0.23113  0.98532  1.0000 -0.5979828746
O   O43       1.0  0.26887  0.59913  0.48532  1.0000 -0.5979828746
O   O44       1.0  0.90087  0.76887  0.98532  1.0000 -0.5979828746
O   O45       1.0  0.23113  0.09913  0.01468  1.0000 -0.5979828746
O   O46       1.0  0.76887  0.90087  0.01468  1.0000 -0.5979828746
O   O47       1.0  0.40087  0.73113  0.51468  1.0000 -0.5979828746
O   O48       1.0  0.59913  0.26887  0.51468  1.0000 -0.5979828746
O   O49       1.0  0.05601  0.15970  0.10262  1.0000 -0.5879981522
O   O50       1.0  0.34030  0.55601  0.60262  1.0000 -0.5879981522
O   O51       1.0  0.94399  0.84030  0.10262  1.0000 -0.5879981522
O   O52       1.0  0.65970  0.44399  0.60262  1.0000 -0.5879981522
O   O53       1.0  0.55601  0.34030  0.39738  1.0000 -0.5879981522
O   O54       1.0  0.44399  0.65970  0.39738  1.0000 -0.5879981522
O   O55       1.0  0.15970  0.05601  0.89738  1.0000 -0.5879981522
O   O56       1.0  0.84030  0.94399  0.89738  1.0000 -0.5879981522
O   O57       1.0  0.96524  0.09220  0.11951  1.0000 -0.5979828746
O   O58       1.0  0.40780  0.46524  0.61951  1.0000 -0.5979828746
O   O59       1.0  0.03476  0.90780  0.11951  1.0000 -0.5979828746
O   O60       1.0  0.59220  0.53476  0.61951  1.0000 -0.5979828746
O   O61       1.0  0.46524  0.40780  0.38049  1.0000 -0.5979828746
O   O62       1.0  0.53476  0.59220  0.38049  1.0000 -0.5979828746
O   O63       1.0  0.09220  0.96524  0.88049  1.0000 -0.5979828746
O   O64       1.0  0.90780  0.03476  0.88049  1.0000 -0.5979828746
O   O65       1.0  0.70433  0.45648  0.43348  1.0000 -0.5775639326
O   O66       1.0  0.04352  0.20433  0.93348  1.0000 -0.5775639326
O   O67       1.0  0.29567  0.54352  0.43348  1.0000 -0.5775639326
O   O68       1.0  0.95648  0.79567  0.93348  1.0000 -0.5775639326
O   O69       1.0  0.20433  0.04352  0.06652  1.0000 -0.5775639326
O   O70       1.0  0.79567  0.95648  0.06652  1.0000 -0.5775639326
O   O71       1.0  0.45648  0.70433  0.56652  1.0000 -0.5775639326
O   O72       1.0  0.54352  0.29567  0.56652  1.0000 -0.5775639326
O   O73       1.0  0.80597  0.76804  0.03289  1.0000 -0.5672424943
O   O74       1.0  0.73196  0.30597  0.53289  1.0000 -0.5672424943
O   O75       1.0  0.19403  0.23196  0.03289  1.0000 -0.5672424943
O   O76       1.0  0.26804  0.69403  0.53289  1.0000 -0.5672424943
O   O77       1.0  0.30597  0.73196  0.46711  1.0000 -0.5672424943
O   O78       1.0  0.69403  0.26804  0.46711  1.0000 -0.5672424943
O   O79       1.0  0.76804  0.80597  0.96711  1.0000 -0.5672424943
O   O80       1.0  0.23196  0.19403  0.96711  1.0000 -0.5672424943
