# DDEC6 charges by PACMAN v1.1 (https://github.com/mtap-research/PACMAN-charge/)
data_ja076167asi20070815_063752_FSR_pacman
_symmetry_space_group_name_H-M   'P 1'
_cell_length_a   14.51540000
_cell_length_b   21.62900000
_cell_length_c   39.35600000
_cell_angle_alpha   90.00000000
_cell_angle_beta   90.00000000
_cell_angle_gamma   90.00000000
_symmetry_Int_Tables_number   1
_chemical_formula_structural   Zn3B25H59C25(NO5)3
_chemical_formula_sum   'Zn24 B200 H472 C200 N24 O120'
_cell_volume   12355.95735423
_cell_formula_units_Z   8
loop_
 _symmetry_equiv_pos_site_id
 _symmetry_equiv_pos_as_xyz
  1  'x, y, z'
loop_
 _atom_site_type_symbol
 _atom_site_label
 _atom_site_symmetry_multiplicity
 _atom_site_fract_x
 _atom_site_fract_y
 _atom_site_fract_z
 _atom_site_occupancy
 _atom_site_charge
Zn  Zn1  1  0.69079000  0.02671000  0.12692000  1.0 0.9984444193
Zn  Zn2  1  0.80921000  0.52671000  0.37308000  1.0 0.9984444193
Zn  Zn3  1  0.69079000  0.47329000  0.87308000  1.0 0.9984444193
Zn  Zn4  1  0.80921000  0.97329000  0.62692000  1.0 0.9984444193
Zn  Zn5  1  0.30921000  0.97329000  0.87308000  1.0 0.9984444193
Zn  Zn6  1  0.19079000  0.47329000  0.62692000  1.0 0.9984444193
Zn  Zn7  1  0.30921000  0.52671000  0.12692000  1.0 0.9984444193
Zn  Zn8  1  0.19079000  0.02671000  0.37308000  1.0 0.9984444193
Zn  Zn9  1  0.73361000  0.17029000  0.15079000  1.0 1.0438693873
Zn  Zn10  1  0.76639000  0.67029000  0.34921000  1.0 1.0438693873
Zn  Zn11  1  0.73361000  0.32971000  0.84921000  1.0 1.0438693873
Zn  Zn12  1  0.76639000  0.82971000  0.65079000  1.0 1.0438693873
Zn  Zn13  1  0.26639000  0.82971000  0.84921000  1.0 1.0438693873
Zn  Zn14  1  0.23361000  0.32971000  0.65079000  1.0 1.0438693873
Zn  Zn15  1  0.26639000  0.67029000  0.15079000  1.0 1.0438693873
Zn  Zn16  1  0.23361000  0.17029000  0.34921000  1.0 1.0438693873
Zn  Zn17  1  0.89835000  0.08176000  0.11053000  1.0 1.0615033321
Zn  Zn18  1  0.60165000  0.58176000  0.38947000  1.0 1.0615033321
Zn  Zn19  1  0.89835000  0.41824000  0.88947000  1.0 1.0615033321
Zn  Zn20  1  0.60165000  0.91824000  0.61053000  1.0 1.0615033321
Zn  Zn21  1  0.10165000  0.91824000  0.88947000  1.0 1.0615033321
Zn  Zn22  1  0.39835000  0.41824000  0.61053000  1.0 1.0615033321
Zn  Zn23  1  0.10165000  0.58176000  0.11053000  1.0 1.0615033321
Zn  Zn24  1  0.39835000  0.08176000  0.38947000  1.0 1.0615033321
B  B1  1  0.93330000  0.34030000  0.11807000  1.0 -0.1724573251
B  B2  1  0.56670000  0.84030000  0.38193000  1.0 -0.1791483288
B  B3  1  0.93330000  0.15970000  0.88193000  1.0 -0.1791483288
B  B4  1  0.56670000  0.65970000  0.61807000  1.0 -0.1724573251
B  B5  1  0.06670000  0.65970000  0.88193000  1.0 -0.1724573251
B  B6  1  0.43330000  0.15970000  0.61807000  1.0 -0.1791483288
B  B7  1  0.06670000  0.84030000  0.11807000  1.0 -0.1791483288
B  B8  1  0.43330000  0.34030000  0.38193000  1.0 -0.1724573251
B  B9  1  0.97350000  0.32890000  0.15935000  1.0 -0.2069121208
B  B10  1  0.52650000  0.82890000  0.34065000  1.0 -0.2069121208
B  B11  1  0.97350000  0.17110000  0.84065000  1.0 -0.2069121208
B  B12  1  0.52650000  0.67110000  0.65935000  1.0 -0.2069121208
B  B13  1  0.02650000  0.67110000  0.84065000  1.0 -0.2069121208
B  B14  1  0.47350000  0.17110000  0.65935000  1.0 -0.2069121208
B  B15  1  0.02650000  0.82890000  0.15935000  1.0 -0.2069121208
B  B16  1  0.47350000  0.32890000  0.34065000  1.0 -0.2069121208
B  B17  1  0.07310000  0.28130000  0.15757000  1.0 -0.2020170309
B  B18  1  0.42690000  0.78130000  0.34243000  1.0 -0.2020170309
B  B19  1  0.07310000  0.21870000  0.84243000  1.0 -0.2020170309
B  B20  1  0.42690000  0.71870000  0.65757000  1.0 -0.2020170309
B  B21  1  0.92690000  0.71870000  0.84243000  1.0 -0.2020170309
B  B22  1  0.57310000  0.21870000  0.65757000  1.0 -0.2020170309
B  B23  1  0.92690000  0.78130000  0.15757000  1.0 -0.2020170309
B  B24  1  0.57310000  0.28130000  0.34243000  1.0 -0.2020170309
B  B25  1  0.09500000  0.26400000  0.11321000  1.0 -0.16061767
B  B26  1  0.40500000  0.76400000  0.38679000  1.0 -0.16061767
B  B27  1  0.09500000  0.23600000  0.88679000  1.0 -0.16061767
B  B28  1  0.40500000  0.73600000  0.61321000  1.0 -0.16061767
B  B29  1  0.90500000  0.73600000  0.88679000  1.0 -0.16061767
B  B30  1  0.59500000  0.23600000  0.61321000  1.0 -0.16061767
B  B31  1  0.90500000  0.76400000  0.11321000  1.0 -0.16061767
B  B32  1  0.59500000  0.26400000  0.38679000  1.0 -0.16061767
B  B33  1  0.00800000  0.30020000  0.08946000  1.0 -0.1282100332
B  B34  1  0.49200000  0.80020000  0.41054000  1.0 -0.1217400927
B  B35  1  0.00800000  0.19980000  0.91054000  1.0 -0.1217400927
B  B36  1  0.49200000  0.69980000  0.58946000  1.0 -0.1282100332
B  B37  1  0.99200000  0.69980000  0.91054000  1.0 -0.1217400927
B  B38  1  0.50800000  0.19980000  0.58946000  1.0 -0.1217400927
B  B39  1  0.99200000  0.80020000  0.08946000  1.0 -0.1217400927
B  B40  1  0.50800000  0.30020000  0.41054000  1.0 -0.1282100332
B  B41  1  0.87450000  0.10920000  0.25638000  1.0 -0.1891722389
B  B42  1  0.62550000  0.60920000  0.24362000  1.0 -0.1891722389
B  B43  1  0.87450000  0.39080000  0.74362000  1.0 -0.1891722389
B  B44  1  0.62550000  0.89080000  0.75638000  1.0 -0.1891722389
B  B45  1  0.12550000  0.89080000  0.74362000  1.0 -0.1891722389
B  B46  1  0.37450000  0.39080000  0.75638000  1.0 -0.1891722389
B  B47  1  0.12550000  0.60920000  0.25638000  1.0 -0.1891722389
B  B48  1  0.37450000  0.10920000  0.24362000  1.0 -0.1891722389
B  B49  1  0.96520000  0.15006000  0.23646000  1.0 -0.1891722389
B  B50  1  0.53480000  0.65006000  0.26354000  1.0 -0.1891722389
B  B51  1  0.96520000  0.34994000  0.76354000  1.0 -0.1891722389
B  B52  1  0.53480000  0.84994000  0.73646000  1.0 -0.1891722389
B  B53  1  0.03480000  0.84994000  0.76354000  1.0 -0.1891722389
B  B54  1  0.46520000  0.34994000  0.73646000  1.0 -0.1891722389
B  B55  1  0.03480000  0.65006000  0.23646000  1.0 -0.1891722389
B  B56  1  0.46520000  0.15006000  0.26354000  1.0 -0.1891722389
B  B57  1  0.04230000  0.09630000  0.21813000  1.0 -0.1891722389
B  B58  1  0.45770000  0.59630000  0.28187000  1.0 -0.1891722389
B  B59  1  0.04230000  0.40370000  0.78187000  1.0 -0.1891722389
B  B60  1  0.45770000  0.90370000  0.71813000  1.0 -0.1891722389
B  B61  1  0.95770000  0.90370000  0.78187000  1.0 -0.1791483288
B  B62  1  0.54230000  0.40370000  0.71813000  1.0 -0.1891722389
B  B63  1  0.95770000  0.59630000  0.21813000  1.0 -0.1891722389
B  B64  1  0.54230000  0.09630000  0.28187000  1.0 -0.1891722389
B  B65  1  0.99910000  0.02060000  0.22610000  1.0 -0.1791483288
B  B66  1  0.50090000  0.52060000  0.27390000  1.0 -0.1891722389
B  B67  1  0.99910000  0.47940000  0.77390000  1.0 -0.1891722389
B  B68  1  0.50090000  0.97940000  0.72610000  1.0 -0.1791483288
B  B69  1  0.00090000  0.97940000  0.77390000  1.0 -0.1791483288
B  B70  1  0.49910000  0.47940000  0.72610000  1.0 -0.1891722389
B  B71  1  0.00090000  0.52060000  0.22610000  1.0 -0.1891722389
B  B72  1  0.49910000  0.02060000  0.27390000  1.0 -0.1791483288
B  B73  1  0.89500000  0.02870000  0.24959000  1.0 -0.1791483288
B  B74  1  0.60500000  0.52870000  0.25041000  1.0 -0.1791483288
B  B75  1  0.89500000  0.47130000  0.75041000  1.0 -0.1791483288
B  B76  1  0.60500000  0.97130000  0.74959000  1.0 -0.1791483288
B  B77  1  0.10500000  0.97130000  0.75041000  1.0 -0.1791483288
B  B78  1  0.39500000  0.47130000  0.74959000  1.0 -0.1791483288
B  B79  1  0.10500000  0.52870000  0.24959000  1.0 -0.1791483288
B  B80  1  0.39500000  0.02870000  0.25041000  1.0 -0.1791483288
B  B81  1  0.84090000  0.82210000  0.13411000  1.0 -0.1891722389
B  B82  1  0.65910000  0.32210000  0.36589000  1.0 -0.1891722389
B  B83  1  0.84090000  0.67790000  0.86589000  1.0 -0.1891722389
B  B84  1  0.65910000  0.17790000  0.63411000  1.0 -0.1891722389
B  B85  1  0.15910000  0.17790000  0.86589000  1.0 -0.1891722389
B  B86  1  0.34090000  0.67790000  0.63411000  1.0 -0.1891722389
B  B87  1  0.15910000  0.32210000  0.13411000  1.0 -0.1891722389
B  B88  1  0.34090000  0.82210000  0.36589000  1.0 -0.1891722389
B  B89  1  0.88190000  0.83460000  0.09230000  1.0 -0.1470694486
B  B90  1  0.61810000  0.33460000  0.40770000  1.0 -0.1470694486
B  B91  1  0.88190000  0.66540000  0.90770000  1.0 -0.1470694486
B  B92  1  0.61810000  0.16540000  0.59230000  1.0 -0.1470694486
B  B93  1  0.11810000  0.16540000  0.90770000  1.0 -0.1470694486
B  B94  1  0.38190000  0.66540000  0.59230000  1.0 -0.1470694486
B  B95  1  0.11810000  0.33460000  0.09230000  1.0 -0.1470694486
B  B96  1  0.38190000  0.83460000  0.40770000  1.0 -0.1470694486
B  B97  1  0.98150000  0.88080000  0.09470000  1.0 -0.0801067394
B  B98  1  0.51850000  0.38080000  0.40530000  1.0 -0.0801067394
B  B99  1  0.98150000  0.61920000  0.90530000  1.0 -0.0801067394
B  B100  1  0.51850000  0.11920000  0.59470000  1.0 -0.0801067394
B  B101  1  0.01850000  0.11920000  0.90530000  1.0 -0.0801067394
B  B102  1  0.48150000  0.61920000  0.59470000  1.0 -0.0801067394
B  B103  1  0.01850000  0.38080000  0.09470000  1.0 -0.0801067394
B  B104  1  0.48150000  0.88080000  0.40530000  1.0 -0.0801067394
B  B105  1  0.00250000  0.89900000  0.13814000  1.0 -0.1791483288
B  B106  1  0.49750000  0.39900000  0.36186000  1.0 -0.1791483288
B  B107  1  0.00250000  0.60100000  0.86186000  1.0 -0.1791483288
B  B108  1  0.49750000  0.10100000  0.63814000  1.0 -0.1791483288
B  B109  1  0.99750000  0.10100000  0.86186000  1.0 -0.1791483288
B  B110  1  0.50250000  0.60100000  0.63814000  1.0 -0.1791483288
B  B111  1  0.99750000  0.39900000  0.13814000  1.0 -0.1791483288
B  B112  1  0.50250000  0.89900000  0.36186000  1.0 -0.1791483288
B  B113  1  0.91470000  0.86170000  0.16246000  1.0 -0.2069121208
B  B114  1  0.58530000  0.36170000  0.33754000  1.0 -0.2069121208
B  B115  1  0.91470000  0.63830000  0.83754000  1.0 -0.2069121208
B  B116  1  0.58530000  0.13830000  0.66246000  1.0 -0.2069121208
B  B117  1  0.08530000  0.13830000  0.83754000  1.0 -0.2069121208
B  B118  1  0.41470000  0.63830000  0.66246000  1.0 -0.2069121208
B  B119  1  0.08530000  0.36170000  0.16246000  1.0 -0.2069121208
B  B120  1  0.41470000  0.86170000  0.33754000  1.0 -0.2069121208
B  B121  1  0.59000000  0.05010000  0.24917000  1.0 -0.2020170309
B  B122  1  0.91000000  0.55010000  0.25083000  1.0 -0.1891722389
B  B123  1  0.59000000  0.44990000  0.75083000  1.0 -0.1891722389
B  B124  1  0.91000000  0.94990000  0.74917000  1.0 -0.1891722389
B  B125  1  0.41000000  0.94990000  0.75083000  1.0 -0.1891722389
B  B126  1  0.09000000  0.44990000  0.74917000  1.0 -0.1891722389
B  B127  1  0.41000000  0.55010000  0.24917000  1.0 -0.1891722389
B  B128  1  0.09000000  0.05010000  0.25083000  1.0 -0.2020170309
B  B129  1  0.56850000  0.13120000  0.24271000  1.0 -0.1791483288
B  B130  1  0.93150000  0.63120000  0.25729000  1.0 -0.1791483288
B  B131  1  0.56850000  0.36880000  0.75729000  1.0 -0.1791483288
B  B132  1  0.93150000  0.86880000  0.74271000  1.0 -0.1791483288
B  B133  1  0.43150000  0.86880000  0.75729000  1.0 -0.1791483288
B  B134  1  0.06850000  0.36880000  0.74271000  1.0 -0.1791483288
B  B135  1  0.43150000  0.63120000  0.24271000  1.0 -0.1791483288
B  B136  1  0.06850000  0.13120000  0.25729000  1.0 -0.1791483288
B  B137  1  0.46550000  0.13930000  0.21934000  1.0 -0.1791483288
B  B138  1  0.03450000  0.63930000  0.28066000  1.0 -0.1791483288
B  B139  1  0.46550000  0.36070000  0.78066000  1.0 -0.1791483288
B  B140  1  0.03450000  0.86070000  0.71934000  1.0 -0.1791483288
B  B141  1  0.53450000  0.86070000  0.78066000  1.0 -0.1791483288
B  B142  1  0.96550000  0.36070000  0.71934000  1.0 -0.1791483288
B  B143  1  0.53450000  0.63930000  0.21934000  1.0 -0.1791483288
B  B144  1  0.96550000  0.13930000  0.28066000  1.0 -0.1791483288
B  B145  1  0.42240000  0.06310000  0.21092000  1.0 -0.1791483288
B  B146  1  0.07760000  0.56310000  0.28908000  1.0 -0.1724573251
B  B147  1  0.42240000  0.43690000  0.78908000  1.0 -0.1791483288
B  B148  1  0.07760000  0.93690000  0.71092000  1.0 -0.1791483288
B  B149  1  0.57760000  0.93690000  0.78908000  1.0 -0.1791483288
B  B150  1  0.92240000  0.43690000  0.71092000  1.0 -0.1791483288
B  B151  1  0.57760000  0.56310000  0.21092000  1.0 -0.1724573251
B  B152  1  0.92240000  0.06310000  0.28908000  1.0 -0.1791483288
B  B153  1  0.49940000  0.00910000  0.22961000  1.0 -0.1791483288
B  B154  1  0.00060000  0.50910000  0.27039000  1.0 -0.1791483288
B  B155  1  0.49940000  0.49090000  0.77039000  1.0 -0.1791483288
B  B156  1  0.00060000  0.99090000  0.72961000  1.0 -0.1791483288
B  B157  1  0.50060000  0.99090000  0.77039000  1.0 -0.1791483288
B  B158  1  0.99940000  0.49090000  0.72961000  1.0 -0.1791483288
B  B159  1  0.50060000  0.50910000  0.22961000  1.0 -0.1791483288
B  B160  1  0.99940000  0.00910000  0.27039000  1.0 -0.1791483288
B  B161  1  0.46100000  0.06330000  0.02067000  1.0 -0.1724573251
B  B162  1  0.03900000  0.56330000  0.47933000  1.0 -0.1724573251
B  B163  1  0.46100000  0.43670000  0.97933000  1.0 -0.1724573251
B  B164  1  0.03900000  0.93670000  0.52067000  1.0 -0.1724573251
B  B165  1  0.53900000  0.93670000  0.97933000  1.0 -0.1724573251
B  B166  1  0.96100000  0.43670000  0.52067000  1.0 -0.1724573251
B  B167  1  0.53900000  0.56330000  0.02067000  1.0 -0.1724573251
B  B168  1  0.96100000  0.06330000  0.47933000  1.0 -0.1724573251
B  B169  1  0.45430000  0.98790000  0.03904000  1.0 -0.1791483288
B  B170  1  0.04570000  0.48790000  0.46096000  1.0 -0.1791483288
B  B171  1  0.45430000  0.51210000  0.96096000  1.0 -0.1791483288
B  B172  1  0.04570000  0.01210000  0.53904000  1.0 -0.1791483288
B  B173  1  0.54570000  0.01210000  0.96096000  1.0 -0.1791483288
B  B174  1  0.95430000  0.51210000  0.53904000  1.0 -0.1791483288
B  B175  1  0.54570000  0.48790000  0.03904000  1.0 -0.1791483288
B  B176  1  0.95430000  0.98790000  0.46096000  1.0 -0.1791483288
B  B177  1  0.54940000  0.94450000  0.02412000  1.0 -0.1724573251
B  B178  1  0.95060000  0.44450000  0.47588000  1.0 -0.1724573251
B  B179  1  0.54940000  0.55550000  0.97588000  1.0 -0.1724573251
B  B180  1  0.95060000  0.05550000  0.52412000  1.0 -0.1724573251
B  B181  1  0.45060000  0.05550000  0.97588000  1.0 -0.1724573251
B  B182  1  0.04940000  0.55550000  0.52412000  1.0 -0.1724573251
B  B183  1  0.45060000  0.44450000  0.02412000  1.0 -0.1724573251
B  B184  1  0.04940000  0.94450000  0.47588000  1.0 -0.1724573251
B  B185  1  0.61520000  0.99290000  0.99645000  1.0 -0.1724573251
B  B186  1  0.88480000  0.49290000  0.50355000  1.0 -0.1724573251
B  B187  1  0.61520000  0.50710000  0.00355000  1.0 -0.1724573251
B  B188  1  0.88480000  0.00710000  0.49645000  1.0 -0.1791483288
B  B189  1  0.38480000  0.00710000  0.00355000  1.0 -0.1791483288
B  B190  1  0.11520000  0.50710000  0.49645000  1.0 -0.1724573251
B  B191  1  0.38480000  0.49290000  0.99645000  1.0 -0.1724573251
B  B192  1  0.11520000  0.99290000  0.50355000  1.0 -0.1791483288
B  B193  1  0.56040000  0.06590000  0.99379000  1.0 -0.1791483288
B  B194  1  0.93960000  0.56590000  0.50621000  1.0 -0.1791483288
B  B195  1  0.56040000  0.43410000  0.00621000  1.0 -0.1791483288
B  B196  1  0.93960000  0.93410000  0.49379000  1.0 -0.1791483288
B  B197  1  0.43960000  0.93410000  0.00621000  1.0 -0.1791483288
B  B198  1  0.06040000  0.43410000  0.49379000  1.0 -0.1791483288
B  B199  1  0.43960000  0.56590000  0.99379000  1.0 -0.1791483288
B  B200  1  0.06040000  0.06590000  0.50621000  1.0 -0.1791483288
H  H1  1  0.55950000  0.23280000  0.14740000  1.0 0.180417197
H  H2  1  0.94050000  0.73280000  0.35260000  1.0 0.180417197
H  H3  1  0.55950000  0.26720000  0.85260000  1.0 0.180417197
H  H4  1  0.94050000  0.76720000  0.64740000  1.0 0.180417197
H  H5  1  0.44050000  0.76720000  0.85260000  1.0 0.180417197
H  H6  1  0.05950000  0.26720000  0.64740000  1.0 0.180417197
H  H7  1  0.44050000  0.73280000  0.14740000  1.0 0.180417197
H  H8  1  0.05950000  0.23280000  0.35260000  1.0 0.180417197
H  H9  1  0.63770000  0.30530000  0.07570000  1.0 0.1590470289
H  H10  1  0.86230000  0.80530000  0.42430000  1.0 0.1590470289
H  H11  1  0.63770000  0.19470000  0.92430000  1.0 0.1590470289
H  H12  1  0.86230000  0.69470000  0.57570000  1.0 0.1590470289
H  H13  1  0.36230000  0.69470000  0.92430000  1.0 0.1590470289
H  H14  1  0.13770000  0.19470000  0.57570000  1.0 0.1590470289
H  H15  1  0.36230000  0.80530000  0.07570000  1.0 0.1590470289
H  H16  1  0.13770000  0.30530000  0.42430000  1.0 0.1590470289
H  H17  1  0.54820000  0.34770000  0.07030000  1.0 0.1519318819
H  H18  1  0.95180000  0.84770000  0.42970000  1.0 0.1519318819
H  H19  1  0.54820000  0.15230000  0.92970000  1.0 0.1519318819
H  H20  1  0.95180000  0.65230000  0.57030000  1.0 0.1519318819
H  H21  1  0.45180000  0.65230000  0.92970000  1.0 0.1519318819
H  H22  1  0.04820000  0.15230000  0.57030000  1.0 0.1519318819
H  H23  1  0.45180000  0.84770000  0.07030000  1.0 0.1519318819
H  H24  1  0.04820000  0.34770000  0.42970000  1.0 0.1519318819
H  H25  1  0.56590000  0.21970000  0.04990000  1.0 0.180417197
H  H26  1  0.93410000  0.71970000  0.45010000  1.0 0.180417197
H  H27  1  0.56590000  0.28030000  0.95010000  1.0 0.180417197
H  H28  1  0.93410000  0.78030000  0.54990000  1.0 0.180417197
H  H29  1  0.43410000  0.78030000  0.95010000  1.0 0.180417197
H  H30  1  0.06590000  0.28030000  0.54990000  1.0 0.180417197
H  H31  1  0.43410000  0.71970000  0.04990000  1.0 0.180417197
H  H32  1  0.06590000  0.21970000  0.45010000  1.0 0.180417197
H  H33  1  0.54490000  0.27660000  0.02510000  1.0 0.180417197
H  H34  1  0.95510000  0.77660000  0.47490000  1.0 0.180417197
H  H35  1  0.54490000  0.22340000  0.97490000  1.0 0.180417197
H  H36  1  0.95510000  0.72340000  0.52510000  1.0 0.180417197
H  H37  1  0.45510000  0.72340000  0.97490000  1.0 0.180417197
H  H38  1  0.04490000  0.22340000  0.52510000  1.0 0.180417197
H  H39  1  0.45510000  0.77660000  0.02510000  1.0 0.180417197
H  H40  1  0.04490000  0.27660000  0.47490000  1.0 0.180417197
H  H41  1  0.46720000  0.25270000  0.05080000  1.0 0.1700732775
H  H42  1  0.03280000  0.75270000  0.44920000  1.0 0.1700732775
H  H43  1  0.46720000  0.24730000  0.94920000  1.0 0.1700732775
H  H44  1  0.03280000  0.74730000  0.55080000  1.0 0.1700732775
H  H45  1  0.53280000  0.74730000  0.94920000  1.0 0.1700732775
H  H46  1  0.96720000  0.24730000  0.55080000  1.0 0.1700732775
H  H47  1  0.53280000  0.75270000  0.05080000  1.0 0.1700732775
H  H48  1  0.96720000  0.25270000  0.44920000  1.0 0.1700732775
H  H49  1  0.43030000  0.28730000  0.14190000  1.0 0.1394338794
H  H50  1  0.06970000  0.78730000  0.35810000  1.0 0.1394338794
H  H51  1  0.43030000  0.21270000  0.85810000  1.0 0.1394338794
H  H52  1  0.06970000  0.71270000  0.64190000  1.0 0.1394338794
H  H53  1  0.56970000  0.71270000  0.85810000  1.0 0.1394338794
H  H54  1  0.93030000  0.21270000  0.64190000  1.0 0.1394338794
H  H55  1  0.56970000  0.78730000  0.14190000  1.0 0.1394338794
H  H56  1  0.93030000  0.28730000  0.35810000  1.0 0.1394338794
H  H57  1  0.40090000  0.30940000  0.10470000  1.0 0.1700732775
H  H58  1  0.09910000  0.80940000  0.39530000  1.0 0.1700732775
H  H59  1  0.40090000  0.19060000  0.89530000  1.0 0.1700732775
H  H60  1  0.09910000  0.69060000  0.60470000  1.0 0.1700732775
H  H61  1  0.59910000  0.69060000  0.89530000  1.0 0.1700732775
H  H62  1  0.90090000  0.19060000  0.60470000  1.0 0.1700732775
H  H63  1  0.59910000  0.80940000  0.10470000  1.0 0.1700732775
H  H64  1  0.90090000  0.30940000  0.39530000  1.0 0.1700732775
H  H65  1  0.50200000  0.38100000  0.15210000  1.0 0.1590470289
H  H66  1  0.99800000  0.88100000  0.34790000  1.0 0.1590470289
H  H67  1  0.50200000  0.11900000  0.84790000  1.0 0.1590470289
H  H68  1  0.99800000  0.61900000  0.65210000  1.0 0.1590470289
H  H69  1  0.49800000  0.61900000  0.84790000  1.0 0.1590470289
H  H70  1  0.00200000  0.11900000  0.65210000  1.0 0.1590470289
H  H71  1  0.49800000  0.88100000  0.15210000  1.0 0.1590470289
H  H72  1  0.00200000  0.38100000  0.34790000  1.0 0.1590470289
H  H73  1  0.39820000  0.39380000  0.14020000  1.0 0.2062991513
H  H74  1  0.10180000  0.89380000  0.35980000  1.0 0.2062991513
H  H75  1  0.39820000  0.10620000  0.85980000  1.0 0.2062991513
H  H76  1  0.10180000  0.60620000  0.64020000  1.0 0.2062991513
H  H77  1  0.60180000  0.60620000  0.85980000  1.0 0.2062991513
H  H78  1  0.89820000  0.10620000  0.64020000  1.0 0.2062991513
H  H79  1  0.60180000  0.89380000  0.14020000  1.0 0.2062991513
H  H80  1  0.89820000  0.39380000  0.35980000  1.0 0.2062991513
H  H81  1  0.48140000  0.40310000  0.11400000  1.0 0.1885854915
H  H82  1  0.01860000  0.90310000  0.38600000  1.0 0.1885854915
H  H83  1  0.48140000  0.09690000  0.88600000  1.0 0.1885854915
H  H84  1  0.01860000  0.59690000  0.61400000  1.0 0.1885854915
H  H85  1  0.51860000  0.59690000  0.88600000  1.0 0.1885854915
H  H86  1  0.98140000  0.09690000  0.61400000  1.0 0.1885854915
H  H87  1  0.51860000  0.90310000  0.11400000  1.0 0.1885854915
H  H88  1  0.98140000  0.40310000  0.38600000  1.0 0.1885854915
H  H89  1  0.79610000  0.22510000  0.21640000  1.0 0.2001025105
H  H90  1  0.70390000  0.72510000  0.28360000  1.0 0.2001025105
H  H91  1  0.79610000  0.27490000  0.78360000  1.0 0.2001025105
H  H92  1  0.70390000  0.77490000  0.71640000  1.0 0.2001025105
H  H93  1  0.20390000  0.77490000  0.78360000  1.0 0.2001025105
H  H94  1  0.29610000  0.27490000  0.71640000  1.0 0.2001025105
H  H95  1  0.20390000  0.72510000  0.21640000  1.0 0.2001025105
H  H96  1  0.29610000  0.22510000  0.28360000  1.0 0.2001025105
H  H97  1  0.66970000  0.38460000  0.23430000  1.0 0.180417197
H  H98  1  0.83030000  0.88460000  0.26570000  1.0 0.180417197
H  H99  1  0.66970000  0.11540000  0.76570000  1.0 0.180417197
H  H100  1  0.83030000  0.61540000  0.73430000  1.0 0.180417197
H  H101  1  0.33030000  0.61540000  0.76570000  1.0 0.180417197
H  H102  1  0.16970000  0.11540000  0.73430000  1.0 0.180417197
H  H103  1  0.33030000  0.88460000  0.23430000  1.0 0.180417197
H  H104  1  0.16970000  0.38460000  0.26570000  1.0 0.180417197
H  H105  1  0.65670000  0.35160000  0.19810000  1.0 0.1590470289
H  H106  1  0.84330000  0.85160000  0.30190000  1.0 0.1590470289
H  H107  1  0.65670000  0.14840000  0.80190000  1.0 0.1590470289
H  H108  1  0.84330000  0.64840000  0.69810000  1.0 0.1590470289
H  H109  1  0.34330000  0.64840000  0.80190000  1.0 0.1590470289
H  H110  1  0.15670000  0.14840000  0.69810000  1.0 0.1590470289
H  H111  1  0.34330000  0.85160000  0.19810000  1.0 0.1590470289
H  H112  1  0.15670000  0.35160000  0.30190000  1.0 0.1590470289
H  H113  1  0.55900000  0.28690000  0.21960000  1.0 0.180417197
H  H114  1  0.94100000  0.78690000  0.28040000  1.0 0.180417197
H  H115  1  0.55900000  0.21310000  0.78040000  1.0 0.180417197
H  H116  1  0.94100000  0.71310000  0.71960000  1.0 0.180417197
H  H117  1  0.44100000  0.71310000  0.78040000  1.0 0.180417197
H  H118  1  0.05900000  0.21310000  0.71960000  1.0 0.180417197
H  H119  1  0.44100000  0.78690000  0.21960000  1.0 0.180417197
H  H120  1  0.05900000  0.28690000  0.28040000  1.0 0.180417197
H  H121  1  0.52810000  0.35600000  0.22860000  1.0 0.180417197
H  H122  1  0.97190000  0.85600000  0.27140000  1.0 0.180417197
H  H123  1  0.52810000  0.14400000  0.77140000  1.0 0.180417197
H  H124  1  0.97190000  0.64400000  0.72860000  1.0 0.180417197
H  H125  1  0.47190000  0.64400000  0.77140000  1.0 0.180417197
H  H126  1  0.02810000  0.14400000  0.72860000  1.0 0.180417197
H  H127  1  0.47190000  0.85600000  0.22860000  1.0 0.180417197
H  H128  1  0.02810000  0.35600000  0.27140000  1.0 0.180417197
H  H129  1  0.57630000  0.31390000  0.25690000  1.0 0.2062991513
H  H130  1  0.92370000  0.81390000  0.24310000  1.0 0.2062991513
H  H131  1  0.57630000  0.18610000  0.74310000  1.0 0.2062991513
H  H132  1  0.92370000  0.68610000  0.75690000  1.0 0.2062991513
H  H133  1  0.42370000  0.68610000  0.74310000  1.0 0.2062991513
H  H134  1  0.07630000  0.18610000  0.75690000  1.0 0.2062991513
H  H135  1  0.42370000  0.81390000  0.25690000  1.0 0.2062991513
H  H136  1  0.07630000  0.31390000  0.24310000  1.0 0.2062991513
H  H137  1  0.73440000  0.30120000  0.28360000  1.0 0.1885854915
H  H138  1  0.76560000  0.80120000  0.21640000  1.0 0.1885854915
H  H139  1  0.73440000  0.19880000  0.71640000  1.0 0.1885854915
H  H140  1  0.76560000  0.69880000  0.78360000  1.0 0.1885854915
H  H141  1  0.26560000  0.69880000  0.71640000  1.0 0.1885854915
H  H142  1  0.23440000  0.19880000  0.78360000  1.0 0.1885854915
H  H143  1  0.26560000  0.80120000  0.28360000  1.0 0.1885854915
H  H144  1  0.23440000  0.30120000  0.21640000  1.0 0.1885854915
H  H145  1  0.82480000  0.27180000  0.26680000  1.0 0.1700732775
H  H146  1  0.67520000  0.77180000  0.23320000  1.0 0.1700732775
H  H147  1  0.82480000  0.22820000  0.73320000  1.0 0.1700732775
H  H148  1  0.67520000  0.72820000  0.76680000  1.0 0.1700732775
H  H149  1  0.17520000  0.72820000  0.73320000  1.0 0.1700732775
H  H150  1  0.32480000  0.22820000  0.76680000  1.0 0.1700732775
H  H151  1  0.17520000  0.77180000  0.26680000  1.0 0.1700732775
H  H152  1  0.32480000  0.27180000  0.23320000  1.0 0.1700732775
H  H153  1  0.83850000  0.37980000  0.24440000  1.0 0.2001025105
H  H154  1  0.66150000  0.87980000  0.25560000  1.0 0.2001025105
H  H155  1  0.83850000  0.12020000  0.75560000  1.0 0.2001025105
H  H156  1  0.66150000  0.62020000  0.74440000  1.0 0.2001025105
H  H157  1  0.16150000  0.62020000  0.75560000  1.0 0.2001025105
H  H158  1  0.33850000  0.12020000  0.74440000  1.0 0.2001025105
H  H159  1  0.16150000  0.87980000  0.24440000  1.0 0.2001025105
H  H160  1  0.33850000  0.37980000  0.25560000  1.0 0.2001025105
H  H161  1  0.88260000  0.35900000  0.27990000  1.0 0.1700732775
H  H162  1  0.61740000  0.85900000  0.22010000  1.0 0.1700732775
H  H163  1  0.88260000  0.14100000  0.72010000  1.0 0.1700732775
H  H164  1  0.61740000  0.64100000  0.77990000  1.0 0.1700732775
H  H165  1  0.11740000  0.64100000  0.72010000  1.0 0.1700732775
H  H166  1  0.38260000  0.14100000  0.77990000  1.0 0.1700732775
H  H167  1  0.11740000  0.85900000  0.27990000  1.0 0.1700732775
H  H168  1  0.38260000  0.35900000  0.22010000  1.0 0.1700732775
H  H169  1  0.78510000  0.39360000  0.27920000  1.0 0.2001025105
H  H170  1  0.71490000  0.89360000  0.22080000  1.0 0.2001025105
H  H171  1  0.78510000  0.10640000  0.72080000  1.0 0.2001025105
H  H172  1  0.71490000  0.60640000  0.77920000  1.0 0.2001025105
H  H173  1  0.21490000  0.60640000  0.72080000  1.0 0.2001025105
H  H174  1  0.28510000  0.10640000  0.77920000  1.0 0.2001025105
H  H175  1  0.21490000  0.89360000  0.27920000  1.0 0.2001025105
H  H176  1  0.28510000  0.39360000  0.22080000  1.0 0.2001025105
H  H177  1  0.08530000  0.12370000  0.11500000  1.0 0.2414259631
H  H178  1  0.41470000  0.62370000  0.38500000  1.0 0.2414259631
H  H179  1  0.08530000  0.37630000  0.88500000  1.0 0.2414259631
H  H180  1  0.41470000  0.87630000  0.61500000  1.0 0.2414259631
H  H181  1  0.91470000  0.87630000  0.88500000  1.0 0.2414259631
H  H182  1  0.58530000  0.37630000  0.61500000  1.0 0.2414259631
H  H183  1  0.91470000  0.62370000  0.11500000  1.0 0.2414259631
H  H184  1  0.58530000  0.12370000  0.38500000  1.0 0.2414259631
H  H185  1  0.22080000  0.13700000  0.13600000  1.0 0.2001025105
H  H186  1  0.27920000  0.63700000  0.36400000  1.0 0.2001025105
H  H187  1  0.22080000  0.36300000  0.86400000  1.0 0.2001025105
H  H188  1  0.27920000  0.86300000  0.63600000  1.0 0.2001025105
H  H189  1  0.77920000  0.86300000  0.86400000  1.0 0.2001025105
H  H190  1  0.72080000  0.36300000  0.63600000  1.0 0.2001025105
H  H191  1  0.77920000  0.63700000  0.13600000  1.0 0.2001025105
H  H192  1  0.72080000  0.13700000  0.36400000  1.0 0.2001025105
H  H193  1  0.28150000  0.07830000  0.14180000  1.0 0.1700732775
H  H194  1  0.21850000  0.57830000  0.35820000  1.0 0.1700732775
H  H195  1  0.28150000  0.42170000  0.85820000  1.0 0.1700732775
H  H196  1  0.21850000  0.92170000  0.64180000  1.0 0.1700732775
H  H197  1  0.71850000  0.92170000  0.85820000  1.0 0.1700732775
H  H198  1  0.78150000  0.42170000  0.64180000  1.0 0.1700732775
H  H199  1  0.71850000  0.57830000  0.14180000  1.0 0.1700732775
H  H200  1  0.78150000  0.07830000  0.35820000  1.0 0.1700732775
H  H201  1  0.37930000  0.10720000  0.11180000  1.0 0.180417197
H  H202  1  0.12070000  0.60720000  0.38820000  1.0 0.180417197
H  H203  1  0.37930000  0.39280000  0.88820000  1.0 0.180417197
H  H204  1  0.12070000  0.89280000  0.61180000  1.0 0.180417197
H  H205  1  0.62070000  0.89280000  0.88820000  1.0 0.180417197
H  H206  1  0.87930000  0.39280000  0.61180000  1.0 0.180417197
H  H207  1  0.62070000  0.60720000  0.11180000  1.0 0.180417197
H  H208  1  0.87930000  0.10720000  0.38820000  1.0 0.180417197
H  H209  1  0.34300000  0.16460000  0.13370000  1.0 0.1700732775
H  H210  1  0.15700000  0.66460000  0.36630000  1.0 0.1700732775
H  H211  1  0.34300000  0.33540000  0.86630000  1.0 0.1700732775
H  H212  1  0.15700000  0.83540000  0.63370000  1.0 0.1700732775
H  H213  1  0.65700000  0.83540000  0.86630000  1.0 0.1700732775
H  H214  1  0.84300000  0.33540000  0.63370000  1.0 0.1700732775
H  H215  1  0.65700000  0.66460000  0.13370000  1.0 0.1700732775
H  H216  1  0.84300000  0.16460000  0.36630000  1.0 0.1700732775
H  H217  1  0.31580000  0.15880000  0.09440000  1.0 0.180417197
H  H218  1  0.18420000  0.65880000  0.40560000  1.0 0.180417197
H  H219  1  0.31580000  0.34120000  0.90560000  1.0 0.180417197
H  H220  1  0.18420000  0.84120000  0.59440000  1.0 0.180417197
H  H221  1  0.68420000  0.84120000  0.90560000  1.0 0.180417197
H  H222  1  0.81580000  0.34120000  0.59440000  1.0 0.180417197
H  H223  1  0.68420000  0.65880000  0.09440000  1.0 0.180417197
H  H224  1  0.81580000  0.15880000  0.40560000  1.0 0.180417197
H  H225  1  0.15970000  0.99240000  0.10280000  1.0 0.2256654091
H  H226  1  0.34030000  0.49240000  0.39720000  1.0 0.2256654091
H  H227  1  0.15970000  0.50760000  0.89720000  1.0 0.2256654091
H  H228  1  0.34030000  0.00760000  0.60280000  1.0 0.2256654091
H  H229  1  0.84030000  0.00760000  0.89720000  1.0 0.2256654091
H  H230  1  0.65970000  0.50760000  0.60280000  1.0 0.2256654091
H  H231  1  0.84030000  0.49240000  0.10280000  1.0 0.2256654091
H  H232  1  0.65970000  0.99240000  0.39720000  1.0 0.2256654091
H  H233  1  0.24980000  0.01900000  0.08650000  1.0 0.2001025105
H  H234  1  0.25020000  0.51900000  0.41350000  1.0 0.2001025105
H  H235  1  0.24980000  0.48100000  0.91350000  1.0 0.1885854915
H  H236  1  0.25020000  0.98100000  0.58650000  1.0 0.2001025105
H  H237  1  0.75020000  0.98100000  0.91350000  1.0 0.2001025105
H  H238  1  0.74980000  0.48100000  0.58650000  1.0 0.2001025105
H  H239  1  0.75020000  0.51900000  0.08650000  1.0 0.2001025105
H  H240  1  0.74980000  0.01900000  0.41350000  1.0 0.2001025105
H  H241  1  0.32560000  0.98690000  0.12620000  1.0 0.1700732775
H  H242  1  0.17440000  0.48690000  0.37380000  1.0 0.1590470289
H  H243  1  0.32560000  0.51310000  0.87380000  1.0 0.1590470289
H  H244  1  0.17440000  0.01310000  0.62620000  1.0 0.1700732775
H  H245  1  0.67440000  0.01310000  0.87380000  1.0 0.1590470289
H  H246  1  0.82560000  0.51310000  0.62620000  1.0 0.1590470289
H  H247  1  0.67440000  0.48690000  0.12620000  1.0 0.1590470289
H  H248  1  0.82560000  0.98690000  0.37380000  1.0 0.1590470289
H  H249  1  0.26470000  0.93670000  0.10650000  1.0 0.1590470289
H  H250  1  0.23530000  0.43670000  0.39350000  1.0 0.1590470289
H  H251  1  0.26470000  0.56330000  0.89350000  1.0 0.1590470289
H  H252  1  0.23530000  0.06330000  0.60650000  1.0 0.1590470289
H  H253  1  0.73530000  0.06330000  0.89350000  1.0 0.1590470289
H  H254  1  0.76470000  0.56330000  0.60650000  1.0 0.1590470289
H  H255  1  0.73530000  0.43670000  0.10650000  1.0 0.1590470289
H  H256  1  0.76470000  0.93670000  0.39350000  1.0 0.1590470289
H  H257  1  0.23380000  0.96030000  0.14330000  1.0 0.180417197
H  H258  1  0.26620000  0.46030000  0.35670000  1.0 0.180417197
H  H259  1  0.23380000  0.53970000  0.85670000  1.0 0.180417197
H  H260  1  0.26620000  0.03970000  0.64330000  1.0 0.180417197
H  H261  1  0.76620000  0.03970000  0.85670000  1.0 0.180417197
H  H262  1  0.73380000  0.53970000  0.64330000  1.0 0.180417197
H  H263  1  0.76620000  0.46030000  0.14330000  1.0 0.180417197
H  H264  1  0.73380000  0.96030000  0.35670000  1.0 0.180417197
H  H265  1  0.87000000  0.34600000  0.11740000  1.0 0.0394753806
H  H266  1  0.63000000  0.84600000  0.38260000  1.0 0.0394753806
H  H267  1  0.87000000  0.15400000  0.88260000  1.0 0.0394753806
H  H268  1  0.63000000  0.65400000  0.61740000  1.0 0.0394753806
H  H269  1  0.13000000  0.65400000  0.88260000  1.0 0.0394753806
H  H270  1  0.37000000  0.15400000  0.61740000  1.0 0.0394753806
H  H271  1  0.13000000  0.84600000  0.11740000  1.0 0.0394753806
H  H272  1  0.37000000  0.34600000  0.38260000  1.0 0.0394753806
H  H273  1  0.92500000  0.31900000  0.18010000  1.0 0.0720954314
H  H274  1  0.57500000  0.81900000  0.31990000  1.0 0.0720954314
H  H275  1  0.92500000  0.18100000  0.81990000  1.0 0.0720954314
H  H276  1  0.57500000  0.68100000  0.68010000  1.0 0.0720954314
H  H277  1  0.07500000  0.68100000  0.81990000  1.0 0.0720954314
H  H278  1  0.42500000  0.18100000  0.68010000  1.0 0.0720954314
H  H279  1  0.07500000  0.81900000  0.18010000  1.0 0.0720954314
H  H280  1  0.42500000  0.31900000  0.31990000  1.0 0.0720954314
H  H281  1  0.09300000  0.24800000  0.17320000  1.0 0.1156478766
H  H282  1  0.40700000  0.74800000  0.32680000  1.0 0.1156478766
H  H283  1  0.09300000  0.25200000  0.82680000  1.0 0.1156478766
H  H284  1  0.40700000  0.75200000  0.67320000  1.0 0.1156478766
H  H285  1  0.90700000  0.75200000  0.82680000  1.0 0.1156478766
H  H286  1  0.59300000  0.25200000  0.67320000  1.0 0.1156478766
H  H287  1  0.90700000  0.74800000  0.17320000  1.0 0.1156478766
H  H288  1  0.59300000  0.24800000  0.32680000  1.0 0.1156478766
H  H289  1  0.11100000  0.22300000  0.10430000  1.0 0.0025758854
H  H290  1  0.38900000  0.72300000  0.39570000  1.0 0.0025758854
H  H291  1  0.11100000  0.27700000  0.89570000  1.0 0.0025758854
H  H292  1  0.38900000  0.77700000  0.60430000  1.0 0.0025758854
H  H293  1  0.88900000  0.77700000  0.89570000  1.0 0.0025758854
H  H294  1  0.61100000  0.27700000  0.60430000  1.0 0.0025758854
H  H295  1  0.88900000  0.72300000  0.10430000  1.0 0.0025758854
H  H296  1  0.61100000  0.22300000  0.39570000  1.0 0.0025758854
H  H297  1  0.97800000  0.28700000  0.06860000  1.0 0.0025758854
H  H298  1  0.52200000  0.78700000  0.43140000  1.0 0.0025758854
H  H299  1  0.97800000  0.21300000  0.93140000  1.0 0.0025758854
H  H300  1  0.52200000  0.71300000  0.56860000  1.0 0.0025758854
H  H301  1  0.02200000  0.71300000  0.93140000  1.0 0.0025758854
H  H302  1  0.47800000  0.21300000  0.56860000  1.0 0.0025758854
H  H303  1  0.02200000  0.78700000  0.06860000  1.0 0.0025758854
H  H304  1  0.47800000  0.28700000  0.43140000  1.0 0.0025758854
H  H305  1  0.81100000  0.13110000  0.25250000  1.0 0.0900211459
H  H306  1  0.68900000  0.63110000  0.24750000  1.0 0.0900211459
H  H307  1  0.81100000  0.36890000  0.74750000  1.0 0.0900211459
H  H308  1  0.68900000  0.86890000  0.75250000  1.0 0.0900211459
H  H309  1  0.18900000  0.86890000  0.74750000  1.0 0.0900211459
H  H310  1  0.31100000  0.36890000  0.75250000  1.0 0.0900211459
H  H311  1  0.18900000  0.63110000  0.25250000  1.0 0.0900211459
H  H312  1  0.31100000  0.13110000  0.24750000  1.0 0.0900211459
H  H313  1  0.95000000  0.18800000  0.22520000  1.0 0.1084405594
H  H314  1  0.55000000  0.68800000  0.27480000  1.0 0.1084405594
H  H315  1  0.95000000  0.31200000  0.77480000  1.0 0.1084405594
H  H316  1  0.55000000  0.81200000  0.72520000  1.0 0.1084405594
H  H317  1  0.05000000  0.81200000  0.77480000  1.0 0.1084405594
H  H318  1  0.45000000  0.31200000  0.72520000  1.0 0.1084405594
H  H319  1  0.05000000  0.68800000  0.22520000  1.0 0.1084405594
H  H320  1  0.45000000  0.18800000  0.27480000  1.0 0.1084405594
H  H321  1  0.07700000  0.10300000  0.19640000  1.0 0.1327876895
H  H322  1  0.42300000  0.60300000  0.30360000  1.0 0.1327876895
H  H323  1  0.07700000  0.39700000  0.80360000  1.0 0.1327876895
H  H324  1  0.42300000  0.89700000  0.69640000  1.0 0.1327876895
H  H325  1  0.92300000  0.89700000  0.80360000  1.0 0.1327876895
H  H326  1  0.57700000  0.39700000  0.69640000  1.0 0.1327876895
H  H327  1  0.92300000  0.60300000  0.19640000  1.0 0.1327876895
H  H328  1  0.57700000  0.10300000  0.30360000  1.0 0.1327876895
H  H329  1  0.00500000  0.98800000  0.20590000  1.0 0.1394338794
H  H330  1  0.49500000  0.48800000  0.29410000  1.0 0.1394338794
H  H331  1  0.00500000  0.51200000  0.79410000  1.0 0.1394338794
H  H332  1  0.49500000  0.01200000  0.70590000  1.0 0.1394338794
H  H333  1  0.99500000  0.01200000  0.79410000  1.0 0.1394338794
H  H334  1  0.50500000  0.51200000  0.70590000  1.0 0.1394338794
H  H335  1  0.99500000  0.48800000  0.20590000  1.0 0.1394338794
H  H336  1  0.50500000  0.98800000  0.29410000  1.0 0.1394338794
H  H337  1  0.83500000  0.99400000  0.24340000  1.0 0.0720954314
H  H338  1  0.66500000  0.49400000  0.25660000  1.0 0.0720954314
H  H339  1  0.83500000  0.50600000  0.75660000  1.0 0.0720954314
H  H340  1  0.66500000  0.00600000  0.74340000  1.0 0.0720954314
H  H341  1  0.16500000  0.00600000  0.75660000  1.0 0.0720954314
H  H342  1  0.33500000  0.50600000  0.74340000  1.0 0.0720954314
H  H343  1  0.16500000  0.49400000  0.24340000  1.0 0.0720954314
H  H344  1  0.33500000  0.99400000  0.25660000  1.0 0.0720954314
H  H345  1  0.76000000  0.82400000  0.13810000  1.0 -0.0130294594
H  H346  1  0.74000000  0.32400000  0.36190000  1.0 -0.0130294594
H  H347  1  0.76000000  0.67600000  0.86190000  1.0 -0.0130294594
H  H348  1  0.74000000  0.17600000  0.63810000  1.0 -0.0130294594
H  H349  1  0.24000000  0.17600000  0.86190000  1.0 -0.0130294594
H  H350  1  0.26000000  0.67600000  0.63810000  1.0 -0.0130294594
H  H351  1  0.24000000  0.32400000  0.13810000  1.0 -0.0130294594
H  H352  1  0.26000000  0.82400000  0.36190000  1.0 -0.0130294594
H  H353  1  0.83900000  0.84100000  0.07330000  1.0 0.0210676918
H  H354  1  0.66100000  0.34100000  0.42670000  1.0 0.0210676918
H  H355  1  0.83900000  0.65900000  0.92670000  1.0 0.0210676918
H  H356  1  0.66100000  0.15900000  0.57330000  1.0 0.0210676918
H  H357  1  0.16100000  0.15900000  0.92670000  1.0 0.0210676918
H  H358  1  0.33900000  0.65900000  0.57330000  1.0 0.0210676918
H  H359  1  0.16100000  0.34100000  0.07330000  1.0 0.0210676918
H  H360  1  0.33900000  0.84100000  0.42670000  1.0 0.0210676918
H  H361  1  0.97300000  0.90600000  0.07600000  1.0 0.0087820087
H  H362  1  0.52700000  0.40600000  0.42400000  1.0 0.0087820087
H  H363  1  0.97300000  0.59400000  0.92400000  1.0 0.0087820087
H  H364  1  0.52700000  0.09400000  0.57600000  1.0 0.0087820087
H  H365  1  0.02700000  0.09400000  0.92400000  1.0 0.0087820087
H  H366  1  0.47300000  0.59400000  0.57600000  1.0 0.0087820087
H  H367  1  0.02700000  0.40600000  0.07600000  1.0 0.0087820087
H  H368  1  0.47300000  0.90600000  0.42400000  1.0 0.0087820087
H  H369  1  0.02000000  0.94000000  0.15290000  1.0 0.0759808384
H  H370  1  0.48000000  0.44000000  0.34710000  1.0 0.0720954314
H  H371  1  0.02000000  0.56000000  0.84710000  1.0 0.0720954314
H  H372  1  0.48000000  0.06000000  0.65290000  1.0 0.0720954314
H  H373  1  0.98000000  0.06000000  0.84710000  1.0 0.0720954314
H  H374  1  0.52000000  0.56000000  0.65290000  1.0 0.0720954314
H  H375  1  0.98000000  0.44000000  0.15290000  1.0 0.0720954314
H  H376  1  0.52000000  0.94000000  0.34710000  1.0 0.0759808384
H  H377  1  0.89800000  0.88800000  0.18350000  1.0 0.0900211459
H  H378  1  0.60200000  0.38800000  0.31650000  1.0 0.0900211459
H  H379  1  0.89800000  0.61200000  0.81650000  1.0 0.0900211459
H  H380  1  0.60200000  0.11200000  0.68350000  1.0 0.0900211459
H  H381  1  0.10200000  0.11200000  0.81650000  1.0 0.0900211459
H  H382  1  0.39800000  0.61200000  0.68350000  1.0 0.0900211459
H  H383  1  0.10200000  0.38800000  0.18350000  1.0 0.0900211459
H  H384  1  0.39800000  0.88800000  0.31650000  1.0 0.0900211459
H  H385  1  0.66100000  0.03480000  0.24630000  1.0 0.1084405594
H  H386  1  0.83900000  0.53480000  0.25370000  1.0 0.1084405594
H  H387  1  0.66100000  0.46520000  0.75370000  1.0 0.1084405594
H  H388  1  0.83900000  0.96520000  0.74630000  1.0 0.1084405594
H  H389  1  0.33900000  0.96520000  0.75370000  1.0 0.1084405594
H  H390  1  0.16100000  0.46520000  0.74630000  1.0 0.1084405594
H  H391  1  0.33900000  0.53480000  0.24630000  1.0 0.1084405594
H  H392  1  0.16100000  0.03480000  0.25370000  1.0 0.1084405594
H  H393  1  0.62700000  0.15900000  0.23710000  1.0 0.0900211459
H  H394  1  0.87300000  0.65900000  0.26290000  1.0 0.0900211459
H  H395  1  0.62700000  0.34100000  0.76290000  1.0 0.0900211459
H  H396  1  0.87300000  0.84100000  0.73710000  1.0 0.0900211459
H  H397  1  0.37300000  0.84100000  0.76290000  1.0 0.0900211459
H  H398  1  0.12700000  0.34100000  0.73710000  1.0 0.0900211459
H  H399  1  0.37300000  0.65900000  0.23710000  1.0 0.0900211459
H  H400  1  0.12700000  0.15900000  0.26290000  1.0 0.0900211459
H  H401  1  0.46200000  0.17300000  0.20110000  1.0 0.0289909337
H  H402  1  0.03800000  0.67300000  0.29890000  1.0 0.0289909337
H  H403  1  0.46200000  0.32700000  0.79890000  1.0 0.0289909337
H  H404  1  0.03800000  0.82700000  0.70110000  1.0 0.0289909337
H  H405  1  0.53800000  0.82700000  0.79890000  1.0 0.0289909337
H  H406  1  0.96200000  0.32700000  0.70110000  1.0 0.0289909337
H  H407  1  0.53800000  0.67300000  0.20110000  1.0 0.0289909337
H  H408  1  0.96200000  0.17300000  0.29890000  1.0 0.0289909337
H  H409  1  0.40300000  0.04400000  0.18730000  1.0 0.0394753806
H  H410  1  0.09700000  0.54400000  0.31270000  1.0 0.0394753806
H  H411  1  0.40300000  0.45600000  0.81270000  1.0 0.0394753806
H  H412  1  0.09700000  0.95600000  0.68730000  1.0 0.0394753806
H  H413  1  0.59700000  0.95600000  0.81270000  1.0 0.0394753806
H  H414  1  0.90300000  0.45600000  0.68730000  1.0 0.0394753806
H  H415  1  0.59700000  0.54400000  0.18730000  1.0 0.0394753806
H  H416  1  0.90300000  0.04400000  0.31270000  1.0 0.0394753806
H  H417  1  0.51900000  0.97000000  0.21620000  1.0 0.0394753806
H  H418  1  0.98100000  0.47000000  0.28380000  1.0 0.0394753806
H  H419  1  0.51900000  0.53000000  0.78380000  1.0 0.0394753806
H  H420  1  0.98100000  0.03000000  0.71620000  1.0 0.0394753806
H  H421  1  0.48100000  0.03000000  0.78380000  1.0 0.0394753806
H  H422  1  0.01900000  0.53000000  0.71620000  1.0 0.0394753806
H  H423  1  0.48100000  0.47000000  0.21620000  1.0 0.0394753806
H  H424  1  0.01900000  0.97000000  0.28380000  1.0 0.0394753806
H  H425  1  0.43500000  0.10700000  0.03650000  1.0 -0.0019024218
H  H426  1  0.06500000  0.60700000  0.46350000  1.0 0.0025758854
H  H427  1  0.43500000  0.39300000  0.96350000  1.0 0.0025758854
H  H428  1  0.06500000  0.89300000  0.53650000  1.0 0.0025758854
H  H429  1  0.56500000  0.89300000  0.96350000  1.0 0.0025758854
H  H430  1  0.93500000  0.39300000  0.53650000  1.0 0.0025758854
H  H431  1  0.56500000  0.60700000  0.03650000  1.0 0.0025758854
H  H432  1  0.93500000  0.10700000  0.46350000  1.0 0.0025758854
H  H433  1  0.43100000  0.98400000  0.06260000  1.0 0.0210676918
H  H434  1  0.06900000  0.48400000  0.43740000  1.0 0.0210676918
H  H435  1  0.43100000  0.51600000  0.93740000  1.0 0.0210676918
H  H436  1  0.06900000  0.01600000  0.56260000  1.0 0.0210676918
H  H437  1  0.56900000  0.01600000  0.93740000  1.0 0.0210676918
H  H438  1  0.93100000  0.51600000  0.56260000  1.0 0.0210676918
H  H439  1  0.56900000  0.48400000  0.06260000  1.0 0.0210676918
H  H440  1  0.93100000  0.98400000  0.43740000  1.0 0.0210676918
H  H441  1  0.58400000  0.91500000  0.04010000  1.0 0.0210676918
H  H442  1  0.91600000  0.41500000  0.45990000  1.0 0.0210676918
H  H443  1  0.58400000  0.58500000  0.95990000  1.0 0.0210676918
H  H444  1  0.91600000  0.08500000  0.54010000  1.0 0.0210676918
H  H445  1  0.41600000  0.08500000  0.95990000  1.0 0.0210676918
H  H446  1  0.08400000  0.58500000  0.54010000  1.0 0.0210676918
H  H447  1  0.41600000  0.41500000  0.04010000  1.0 0.0210676918
H  H448  1  0.08400000  0.91500000  0.45990000  1.0 0.0210676918
H  H449  1  0.68800000  0.99490000  0.99780000  1.0 -0.0019024218
H  H450  1  0.81200000  0.49490000  0.50220000  1.0 -0.0019024218
H  H451  1  0.68800000  0.50510000  0.00220000  1.0 -0.0019024218
H  H452  1  0.81200000  0.00510000  0.49780000  1.0 -0.0019024218
H  H453  1  0.31200000  0.00510000  0.00220000  1.0 -0.0019024218
H  H454  1  0.18800000  0.50510000  0.49780000  1.0 -0.0019024218
H  H455  1  0.31200000  0.49490000  0.99780000  1.0 -0.0019024218
H  H456  1  0.18800000  0.99490000  0.50220000  1.0 -0.0019024218
H  H457  1  0.60100000  0.11100000  0.99560000  1.0 -0.0202240574
H  H458  1  0.89900000  0.61100000  0.50440000  1.0 -0.0202240574
H  H459  1  0.60100000  0.38900000  0.00440000  1.0 -0.0202240574
H  H460  1  0.89900000  0.88900000  0.49560000  1.0 -0.0202240574
H  H461  1  0.39900000  0.88900000  0.00440000  1.0 -0.0202240574
H  H462  1  0.10100000  0.38900000  0.49560000  1.0 -0.0202240574
H  H463  1  0.39900000  0.61100000  0.99560000  1.0 -0.0202240574
H  H464  1  0.10100000  0.11100000  0.50440000  1.0 -0.0202240574
H  H465  1  0.74600000  0.10600000  0.08900000  1.0 0.4069136195
H  H466  1  0.75400000  0.60600000  0.41100000  1.0 0.4069136195
H  H467  1  0.74600000  0.39400000  0.91100000  1.0 0.4069136195
H  H468  1  0.75400000  0.89400000  0.58900000  1.0 0.4069136195
H  H469  1  0.25400000  0.89400000  0.91100000  1.0 0.4069136195
H  H470  1  0.24600000  0.39400000  0.58900000  1.0 0.4069136195
H  H471  1  0.25400000  0.60600000  0.08900000  1.0 0.4069136195
H  H472  1  0.24600000  0.10600000  0.41100000  1.0 0.4069136195
C  C1  1  0.92270000  0.21586000  0.13086000  1.0 0.6601547152
C  C2  1  0.57730000  0.71586000  0.36914000  1.0 0.6601547152
C  C3  1  0.92270000  0.28414000  0.86914000  1.0 0.6601547152
C  C4  1  0.57730000  0.78414000  0.63086000  1.0 0.6601547152
C  C5  1  0.07730000  0.78414000  0.86914000  1.0 0.6601547152
C  C6  1  0.42270000  0.28414000  0.63086000  1.0 0.6601547152
C  C7  1  0.07730000  0.71586000  0.13086000  1.0 0.6601547152
C  C8  1  0.42270000  0.21586000  0.36914000  1.0 0.6601547152
C  C9  1  0.98550000  0.27285000  0.12912000  1.0 -0.138237716
C  C10  1  0.51450000  0.77285000  0.37088000  1.0 -0.138237716
C  C11  1  0.98550000  0.22715000  0.87088000  1.0 -0.1282100332
C  C12  1  0.51450000  0.72715000  0.62912000  1.0 -0.138237716
C  C13  1  0.01450000  0.72715000  0.87088000  1.0 -0.138237716
C  C14  1  0.48550000  0.22715000  0.62912000  1.0 -0.1282100332
C  C15  1  0.01450000  0.77285000  0.12912000  1.0 -0.138237716
C  C16  1  0.48550000  0.27285000  0.37088000  1.0 -0.138237716
C  C17  1  0.87080000  0.08704000  0.18683000  1.0 0.6672928594
C  C18  1  0.62920000  0.58704000  0.31317000  1.0 0.6672928594
C  C19  1  0.87080000  0.41296000  0.81317000  1.0 0.6672928594
C  C20  1  0.62920000  0.91296000  0.68683000  1.0 0.6672928594
C  C21  1  0.12920000  0.91296000  0.81317000  1.0 0.6672928594
C  C22  1  0.37080000  0.41296000  0.68683000  1.0 0.6672928594
C  C23  1  0.12920000  0.58704000  0.18683000  1.0 0.6672928594
C  C24  1  0.37080000  0.08704000  0.31317000  1.0 0.6672928594
C  C25  1  0.92610000  0.08211000  0.22018000  1.0 -0.0801067394
C  C26  1  0.57390000  0.58211000  0.27982000  1.0 -0.0801067394
C  C27  1  0.92610000  0.41789000  0.77982000  1.0 -0.0801067394
C  C28  1  0.57390000  0.91789000  0.72018000  1.0 -0.0801067394
C  C29  1  0.07390000  0.91789000  0.77982000  1.0 -0.0801067394
C  C30  1  0.42610000  0.41789000  0.72018000  1.0 -0.0801067394
C  C31  1  0.07390000  0.58211000  0.22018000  1.0 -0.0801067394
C  C32  1  0.42610000  0.08211000  0.27982000  1.0 -0.0801067394
C  C33  1  0.83520000  0.94797000  0.11860000  1.0 0.6601547152
C  C34  1  0.66480000  0.44797000  0.38140000  1.0 0.6601547152
C  C35  1  0.83520000  0.55203000  0.88140000  1.0 0.6601547152
C  C36  1  0.66480000  0.05203000  0.61860000  1.0 0.6601547152
C  C37  1  0.16480000  0.05203000  0.88140000  1.0 0.6601547152
C  C38  1  0.33520000  0.55203000  0.61860000  1.0 0.6601547152
C  C39  1  0.16480000  0.44797000  0.11860000  1.0 0.6601547152
C  C40  1  0.33520000  0.94797000  0.38140000  1.0 0.6601547152
C  C41  1  0.89340000  0.88928000  0.12276000  1.0 -0.1217400927
C  C42  1  0.60660000  0.38928000  0.37724000  1.0 -0.1282100332
C  C43  1  0.89340000  0.61072000  0.87724000  1.0 -0.1217400927
C  C44  1  0.60660000  0.11072000  0.62276000  1.0 -0.1217400927
C  C45  1  0.10660000  0.11072000  0.87724000  1.0 -0.1217400927
C  C46  1  0.39340000  0.61072000  0.62276000  1.0 -0.1217400927
C  C47  1  0.10660000  0.38928000  0.12276000  1.0 -0.1282100332
C  C48  1  0.39340000  0.88928000  0.37724000  1.0 -0.1217400927
C  C49  1  0.59270000  0.07790000  0.17974000  1.0 0.6536233798
C  C50  1  0.90730000  0.57790000  0.32026000  1.0 0.6536233798
C  C51  1  0.59270000  0.42210000  0.82026000  1.0 0.6536233798
C  C52  1  0.90730000  0.92210000  0.67974000  1.0 0.6536233798
C  C53  1  0.40730000  0.92210000  0.82026000  1.0 0.6536233798
C  C54  1  0.09270000  0.42210000  0.67974000  1.0 0.6536233798
C  C55  1  0.40730000  0.57790000  0.17974000  1.0 0.6536233798
C  C56  1  0.09270000  0.07790000  0.32026000  1.0 0.6536233798
C  C57  1  0.53830000  0.07736000  0.21295000  1.0 -0.1039992906
C  C58  1  0.96170000  0.57736000  0.28705000  1.0 -0.1039992906
C  C59  1  0.53830000  0.42264000  0.78705000  1.0 -0.1091499023
C  C60  1  0.96170000  0.92264000  0.71295000  1.0 -0.1091499023
C  C61  1  0.46170000  0.92264000  0.78705000  1.0 -0.1091499023
C  C62  1  0.03830000  0.42264000  0.71295000  1.0 -0.1091499023
C  C63  1  0.46170000  0.57736000  0.21295000  1.0 -0.1039992906
C  C64  1  0.03830000  0.07736000  0.28705000  1.0 -0.1039992906
C  C65  1  0.61670000  0.04622000  0.06058000  1.0 0.6536233798
C  C66  1  0.88330000  0.54622000  0.43942000  1.0 0.6536233798
C  C67  1  0.61670000  0.45378000  0.93942000  1.0 0.6536233798
C  C68  1  0.88330000  0.95378000  0.56058000  1.0 0.6536233798
C  C69  1  0.38330000  0.95378000  0.93942000  1.0 0.6536233798
C  C70  1  0.11670000  0.45378000  0.56058000  1.0 0.6536233798
C  C71  1  0.38330000  0.54622000  0.06058000  1.0 0.6536233798
C  C72  1  0.11670000  0.04622000  0.43942000  1.0 0.6536233798
C  C73  1  0.55860000  0.02286000  0.03046000  1.0 -0.1091499023
C  C74  1  0.94140000  0.52286000  0.46954000  1.0 -0.1091499023
C  C75  1  0.55860000  0.47714000  0.96954000  1.0 -0.1217400927
C  C76  1  0.94140000  0.97714000  0.53046000  1.0 -0.1091499023
C  C77  1  0.44140000  0.97714000  0.96954000  1.0 -0.1091499023
C  C78  1  0.05860000  0.47714000  0.53046000  1.0 -0.1217400927
C  C79  1  0.44140000  0.52286000  0.03046000  1.0 -0.1091499023
C  C80  1  0.05860000  0.02286000  0.46954000  1.0 -0.1091499023
C  C81  1  0.58330000  0.24544000  0.12605000  1.0 0.3316205032
C  C82  1  0.91670000  0.74544000  0.37395000  1.0 0.3316205032
C  C83  1  0.58330000  0.25456000  0.87395000  1.0 0.3316205032
C  C84  1  0.91670000  0.75456000  0.62605000  1.0 0.3316205032
C  C85  1  0.41670000  0.75456000  0.87395000  1.0 0.3316205032
C  C86  1  0.08330000  0.25456000  0.62605000  1.0 0.3316205032
C  C87  1  0.41670000  0.74544000  0.12605000  1.0 0.3316205032
C  C88  1  0.08330000  0.24544000  0.37395000  1.0 0.3316205032
C  C89  1  0.56950000  0.30530000  0.07553000  1.0 0.0210676918
C  C90  1  0.93050000  0.80530000  0.42447000  1.0 0.0210676918
C  C91  1  0.56950000  0.19470000  0.92447000  1.0 0.0210676918
C  C92  1  0.93050000  0.69470000  0.57553000  1.0 0.0210676918
C  C93  1  0.43050000  0.69470000  0.92447000  1.0 0.0210676918
C  C94  1  0.06950000  0.19470000  0.57553000  1.0 0.0210676918
C  C95  1  0.43050000  0.80530000  0.07553000  1.0 0.0210676918
C  C96  1  0.06950000  0.30530000  0.42447000  1.0 0.0210676918
C  C97  1  0.53350000  0.25920000  0.04770000  1.0 -0.4070732892
C  C98  1  0.96650000  0.75920000  0.45230000  1.0 -0.4070732892
C  C99  1  0.53350000  0.24080000  0.95230000  1.0 -0.4070732892
C  C100  1  0.96650000  0.74080000  0.54770000  1.0 -0.4070732892
C  C101  1  0.46650000  0.74080000  0.95230000  1.0 -0.4070732892
C  C102  1  0.03350000  0.24080000  0.54770000  1.0 -0.4070732892
C  C103  1  0.46650000  0.75920000  0.04770000  1.0 -0.4070732892
C  C104  1  0.03350000  0.25920000  0.45230000  1.0 -0.4070732892
C  C105  1  0.44970000  0.31240000  0.12219000  1.0 -0.0202240574
C  C106  1  0.05030000  0.81240000  0.37781000  1.0 -0.0202240574
C  C107  1  0.44970000  0.18760000  0.87781000  1.0 -0.0202240574
C  C108  1  0.05030000  0.68760000  0.62219000  1.0 -0.0202240574
C  C109  1  0.55030000  0.68760000  0.87781000  1.0 -0.0202240574
C  C110  1  0.94970000  0.18760000  0.62219000  1.0 -0.0202240574
C  C111  1  0.55030000  0.81240000  0.12219000  1.0 -0.0202240574
C  C112  1  0.94970000  0.31240000  0.37781000  1.0 -0.0202240574
C  C113  1  0.45860000  0.37820000  0.13303000  1.0 -0.3729544767
C  C114  1  0.04140000  0.87820000  0.36697000  1.0 -0.3729544767
C  C115  1  0.45860000  0.12180000  0.86697000  1.0 -0.3729544767
C  C116  1  0.04140000  0.62180000  0.63303000  1.0 -0.3729544767
C  C117  1  0.54140000  0.62180000  0.86697000  1.0 -0.3729544767
C  C118  1  0.95860000  0.12180000  0.63303000  1.0 -0.3729544767
C  C119  1  0.54140000  0.87820000  0.13303000  1.0 -0.3729544767
C  C120  1  0.95860000  0.37820000  0.36697000  1.0 -0.3729544767
C  C121  1  0.74530000  0.25140000  0.21165000  1.0 0.3422761075
C  C122  1  0.75470000  0.75140000  0.28835000  1.0 0.3422761075
C  C123  1  0.74530000  0.24860000  0.78835000  1.0 0.3422761075
C  C124  1  0.75470000  0.74860000  0.71165000  1.0 0.3422761075
C  C125  1  0.25470000  0.74860000  0.78835000  1.0 0.3422761075
C  C126  1  0.24530000  0.24860000  0.71165000  1.0 0.3422761075
C  C127  1  0.25470000  0.75140000  0.21165000  1.0 0.3422761075
C  C128  1  0.24530000  0.25140000  0.28835000  1.0 0.3422761075
C  C129  1  0.65650000  0.34470000  0.22300000  1.0 -0.0130294594
C  C130  1  0.84350000  0.84470000  0.27700000  1.0 -0.0130294594
C  C131  1  0.65650000  0.15530000  0.77700000  1.0 -0.0130294594
C  C132  1  0.84350000  0.65530000  0.72300000  1.0 -0.0130294594
C  C133  1  0.34350000  0.65530000  0.77700000  1.0 -0.0130294594
C  C134  1  0.15650000  0.15530000  0.72300000  1.0 -0.0130294594
C  C135  1  0.34350000  0.84470000  0.22300000  1.0 -0.0130294594
C  C136  1  0.15650000  0.34470000  0.27700000  1.0 -0.0130294594
C  C137  1  0.57460000  0.32400000  0.23270000  1.0 -0.3403961509
C  C138  1  0.92540000  0.82400000  0.26730000  1.0 -0.3403961509
C  C139  1  0.57460000  0.17600000  0.76730000  1.0 -0.3403961509
C  C140  1  0.92540000  0.67600000  0.73270000  1.0 -0.3403961509
C  C141  1  0.42540000  0.67600000  0.76730000  1.0 -0.3403961509
C  C142  1  0.07460000  0.17600000  0.73270000  1.0 -0.3403961509
C  C143  1  0.42540000  0.82400000  0.23270000  1.0 -0.3403961509
C  C144  1  0.07460000  0.32400000  0.26730000  1.0 -0.3403961509
C  C145  1  0.77870000  0.30530000  0.26458000  1.0 -0.0202240574
C  C146  1  0.72130000  0.80530000  0.23542000  1.0 -0.0202240574
C  C147  1  0.77870000  0.19470000  0.73542000  1.0 -0.0202240574
C  C148  1  0.72130000  0.69470000  0.76458000  1.0 -0.0202240574
C  C149  1  0.22130000  0.69470000  0.73542000  1.0 -0.0202240574
C  C150  1  0.27870000  0.19470000  0.76458000  1.0 -0.0202240574
C  C151  1  0.22130000  0.80530000  0.26458000  1.0 -0.0202240574
C  C152  1  0.27870000  0.30530000  0.23542000  1.0 -0.0202240574
C  C153  1  0.82490000  0.36410000  0.26720000  1.0 -0.3798158525
C  C154  1  0.67510000  0.86410000  0.23280000  1.0 -0.3798158525
C  C155  1  0.82490000  0.13590000  0.73280000  1.0 -0.3867543824
C  C156  1  0.67510000  0.63590000  0.76720000  1.0 -0.3798158525
C  C157  1  0.17510000  0.63590000  0.73280000  1.0 -0.3798158525
C  C158  1  0.32490000  0.13590000  0.76720000  1.0 -0.3867543824
C  C159  1  0.17510000  0.86410000  0.26720000  1.0 -0.3798158525
C  C160  1  0.32490000  0.36410000  0.23280000  1.0 -0.3798158525
C  C161  1  0.09940000  0.08140000  0.11110000  1.0 0.2764641754
C  C162  1  0.40060000  0.58140000  0.38890000  1.0 0.2746262364
C  C163  1  0.09940000  0.41860000  0.88890000  1.0 0.2764641754
C  C164  1  0.40060000  0.91860000  0.61110000  1.0 0.2764641754
C  C165  1  0.90060000  0.91860000  0.88890000  1.0 0.2764641754
C  C166  1  0.59940000  0.41860000  0.61110000  1.0 0.2764641754
C  C167  1  0.90060000  0.58140000  0.11110000  1.0 0.2746262364
C  C168  1  0.59940000  0.08140000  0.38890000  1.0 0.2764641754
C  C169  1  0.25550000  0.10470000  0.12360000  1.0 -0.0019024218
C  C170  1  0.24450000  0.60470000  0.37640000  1.0 -0.0019024218
C  C171  1  0.25550000  0.39530000  0.87640000  1.0 -0.0019024218
C  C172  1  0.24450000  0.89530000  0.62360000  1.0 -0.0019024218
C  C173  1  0.74450000  0.89530000  0.87640000  1.0 -0.0019024218
C  C174  1  0.75550000  0.39530000  0.62360000  1.0 -0.0019024218
C  C175  1  0.74450000  0.60470000  0.12360000  1.0 -0.0019024218
C  C176  1  0.75550000  0.10470000  0.37640000  1.0 -0.0019024218
C  C177  1  0.32770000  0.13570000  0.11540000  1.0 -0.3403961509
C  C178  1  0.17230000  0.63570000  0.38460000  1.0 -0.3403961509
C  C179  1  0.32770000  0.36430000  0.88460000  1.0 -0.3403961509
C  C180  1  0.17230000  0.86430000  0.61540000  1.0 -0.3403961509
C  C181  1  0.67230000  0.86430000  0.88460000  1.0 -0.3403961509
C  C182  1  0.82770000  0.36430000  0.61540000  1.0 -0.3403961509
C  C183  1  0.67230000  0.63570000  0.11540000  1.0 -0.3403961509
C  C184  1  0.82770000  0.13570000  0.38460000  1.0 -0.3403961509
C  C185  1  0.21760000  0.01420000  0.10850000  1.0 -0.0019024218
C  C186  1  0.28240000  0.51420000  0.39150000  1.0 -0.0019024218
C  C187  1  0.21760000  0.48580000  0.89150000  1.0 -0.0019024218
C  C188  1  0.28240000  0.98580000  0.60850000  1.0 -0.0019024218
C  C189  1  0.78240000  0.98580000  0.89150000  1.0 -0.0019024218
C  C190  1  0.71760000  0.48580000  0.60850000  1.0 -0.0019024218
C  C191  1  0.78240000  0.51420000  0.10850000  1.0 -0.0019024218
C  C192  1  0.71760000  0.01420000  0.39150000  1.0 -0.0019024218
C  C193  1  0.26270000  0.97240000  0.12180000  1.0 -0.2759445879
C  C194  1  0.23730000  0.47240000  0.37820000  1.0 -0.2759445879
C  C195  1  0.26270000  0.52760000  0.87820000  1.0 -0.2759445879
C  C196  1  0.23730000  0.02760000  0.62180000  1.0 -0.2739737816
C  C197  1  0.73730000  0.02760000  0.87820000  1.0 -0.2759445879
C  C198  1  0.76270000  0.52760000  0.62180000  1.0 -0.2759445879
C  C199  1  0.73730000  0.47240000  0.12180000  1.0 -0.2759445879
C  C200  1  0.76270000  0.97240000  0.37820000  1.0 -0.2759445879
N  N1  1  0.53530000  0.28663000  0.10840000  1.0 -0.1470694486
N  N2  1  0.96470000  0.78663000  0.39160000  1.0 -0.1470694486
N  N3  1  0.53530000  0.21337000  0.89160000  1.0 -0.1470694486
N  N4  1  0.96470000  0.71337000  0.60840000  1.0 -0.1470694486
N  N5  1  0.46470000  0.71337000  0.89160000  1.0 -0.1470694486
N  N6  1  0.03530000  0.21337000  0.60840000  1.0 -0.1470694486
N  N7  1  0.46470000  0.78663000  0.10840000  1.0 -0.1470694486
N  N8  1  0.03530000  0.28663000  0.39160000  1.0 -0.1470694486
N  N9  1  0.72930000  0.29810000  0.23223000  1.0 -0.2069121208
N  N10  1  0.77070000  0.79810000  0.26777000  1.0 -0.2069121208
N  N11  1  0.72930000  0.20190000  0.76777000  1.0 -0.2069121208
N  N12  1  0.77070000  0.70190000  0.73223000  1.0 -0.2069121208
N  N13  1  0.27070000  0.70190000  0.76777000  1.0 -0.2069121208
N  N14  1  0.22930000  0.20190000  0.73223000  1.0 -0.2069121208
N  N15  1  0.27070000  0.79810000  0.23223000  1.0 -0.2069121208
N  N16  1  0.22930000  0.29810000  0.26777000  1.0 -0.2069121208
N  N17  1  0.18780000  0.07000000  0.11368000  1.0 -0.16061767
N  N18  1  0.31220000  0.57000000  0.38632000  1.0 -0.16061767
N  N19  1  0.18780000  0.43000000  0.88632000  1.0 -0.16061767
N  N20  1  0.31220000  0.93000000  0.61368000  1.0 -0.16061767
N  N21  1  0.81220000  0.93000000  0.88632000  1.0 -0.16061767
N  N22  1  0.68780000  0.43000000  0.61368000  1.0 -0.16061767
N  N23  1  0.81220000  0.57000000  0.11368000  1.0 -0.16061767
N  N24  1  0.68780000  0.07000000  0.38632000  1.0 -0.16061767
O  O1  1  0.76030000  0.10220000  0.11587000  1.0 -0.718607638
O  O2  1  0.73970000  0.60220000  0.38413000  1.0 -0.718607638
O  O3  1  0.76030000  0.39780000  0.88413000  1.0 -0.718607638
O  O4  1  0.73970000  0.89780000  0.61587000  1.0 -0.718607638
O  O5  1  0.23970000  0.89780000  0.88413000  1.0 -0.718607638
O  O6  1  0.26030000  0.39780000  0.61587000  1.0 -0.718607638
O  O7  1  0.23970000  0.60220000  0.11587000  1.0 -0.718607638
O  O8  1  0.26030000  0.10220000  0.38413000  1.0 -0.718607638
O  O9  1  0.84840000  0.22340000  0.14435000  1.0 -0.5501309174
O  O10  1  0.65160000  0.72340000  0.35565000  1.0 -0.5501309174
O  O11  1  0.84840000  0.27660000  0.85565000  1.0 -0.5501309174
O  O12  1  0.65160000  0.77660000  0.64435000  1.0 -0.5501309174
O  O13  1  0.15160000  0.77660000  0.85565000  1.0 -0.5501309174
O  O14  1  0.34840000  0.27660000  0.64435000  1.0 -0.5501309174
O  O15  1  0.15160000  0.72340000  0.14435000  1.0 -0.5501309174
O  O16  1  0.34840000  0.22340000  0.35565000  1.0 -0.5501309174
O  O17  1  0.95270000  0.16850000  0.11832000  1.0 -0.5718042015
O  O18  1  0.54730000  0.66850000  0.38168000  1.0 -0.5718042015
O  O19  1  0.95270000  0.33150000  0.88168000  1.0 -0.5751196332
O  O20  1  0.54730000  0.83150000  0.61832000  1.0 -0.5718042015
O  O21  1  0.04730000  0.83150000  0.88168000  1.0 -0.5751196332
O  O22  1  0.45270000  0.33150000  0.61832000  1.0 -0.5718042015
O  O23  1  0.04730000  0.66850000  0.11832000  1.0 -0.5718042015
O  O24  1  0.45270000  0.16850000  0.38168000  1.0 -0.5718042015
O  O25  1  0.80070000  0.11850000  0.18808000  1.0 -0.5584947951
O  O26  1  0.69930000  0.61850000  0.31192000  1.0 -0.5584947951
O  O27  1  0.80070000  0.38150000  0.81192000  1.0 -0.5584947951
O  O28  1  0.69930000  0.88150000  0.68808000  1.0 -0.5584947951
O  O29  1  0.19930000  0.88150000  0.81192000  1.0 -0.5584947951
O  O30  1  0.30070000  0.38150000  0.68808000  1.0 -0.5584947951
O  O31  1  0.19930000  0.61850000  0.18808000  1.0 -0.5584947951
O  O32  1  0.30070000  0.11850000  0.31192000  1.0 -0.5584947951
O  O33  1  0.90480000  0.05992000  0.16176000  1.0 -0.5584947951
O  O34  1  0.59520000  0.55992000  0.33824000  1.0 -0.5584947951
O  O35  1  0.90480000  0.44008000  0.83824000  1.0 -0.5584947951
O  O36  1  0.59520000  0.94008000  0.66176000  1.0 -0.5584947951
O  O37  1  0.09520000  0.94008000  0.83824000  1.0 -0.5584947951
O  O38  1  0.40480000  0.44008000  0.66176000  1.0 -0.5584947951
O  O39  1  0.09520000  0.55992000  0.16176000  1.0 -0.5584947951
O  O40  1  0.40480000  0.05992000  0.33824000  1.0 -0.5584947951
O  O41  1  0.76186000  0.95042000  0.13522000  1.0 -0.5501309174
O  O42  1  0.73814000  0.45042000  0.36478000  1.0 -0.5501309174
O  O43  1  0.76186000  0.54958000  0.86478000  1.0 -0.5501309174
O  O44  1  0.73814000  0.04958000  0.63522000  1.0 -0.5501309174
O  O45  1  0.23814000  0.04958000  0.86478000  1.0 -0.5501309174
O  O46  1  0.26186000  0.54958000  0.63522000  1.0 -0.5501309174
O  O47  1  0.23814000  0.45042000  0.13522000  1.0 -0.5501309174
O  O48  1  0.26186000  0.95042000  0.36478000  1.0 -0.5501309174
O  O49  1  0.86580000  0.98847000  0.09922000  1.0 -0.6012599133
O  O50  1  0.63420000  0.48847000  0.40078000  1.0 -0.6012599133
O  O51  1  0.86580000  0.51153000  0.90078000  1.0 -0.6012599133
O  O52  1  0.63420000  0.01153000  0.59922000  1.0 -0.6012599133
O  O53  1  0.13420000  0.01153000  0.90078000  1.0 -0.6012599133
O  O54  1  0.36580000  0.51153000  0.59922000  1.0 -0.6012599133
O  O55  1  0.13420000  0.48847000  0.09922000  1.0 -0.6012599133
O  O56  1  0.36580000  0.98847000  0.40078000  1.0 -0.6012599133
O  O57  1  0.60692000  0.12858000  0.16616000  1.0 -0.5718042015
O  O58  1  0.89308000  0.62858000  0.33384000  1.0 -0.5718042015
O  O59  1  0.60692000  0.37142000  0.83384000  1.0 -0.5718042015
O  O60  1  0.89308000  0.87142000  0.66616000  1.0 -0.5718042015
O  O61  1  0.39308000  0.87142000  0.83384000  1.0 -0.5718042015
O  O62  1  0.10692000  0.37142000  0.66616000  1.0 -0.5718042015
O  O63  1  0.39308000  0.62858000  0.16616000  1.0 -0.5718042015
O  O64  1  0.10692000  0.12858000  0.33384000  1.0 -0.5718042015
O  O65  1  0.61806000  0.02577000  0.16908000  1.0 -0.5191681646
O  O66  1  0.88194000  0.52577000  0.33092000  1.0 -0.5191681646
O  O67  1  0.61806000  0.47423000  0.83092000  1.0 -0.5191681646
O  O68  1  0.88194000  0.97423000  0.66908000  1.0 -0.5191681646
O  O69  1  0.38194000  0.97423000  0.83092000  1.0 -0.5191681646
O  O70  1  0.11806000  0.47423000  0.66908000  1.0 -0.5191681646
O  O71  1  0.38194000  0.52577000  0.16908000  1.0 -0.5191681646
O  O72  1  0.11806000  0.02577000  0.33092000  1.0 -0.5191681646
O  O73  1  0.61266000  0.01165000  0.08680000  1.0 -0.5501309174
O  O74  1  0.88734000  0.51165000  0.41320000  1.0 -0.5501309174
O  O75  1  0.61266000  0.48835000  0.91320000  1.0 -0.5501309174
O  O76  1  0.88734000  0.98835000  0.58680000  1.0 -0.5501309174
O  O77  1  0.38734000  0.98835000  0.91320000  1.0 -0.5501309174
O  O78  1  0.11266000  0.48835000  0.58680000  1.0 -0.5501309174
O  O79  1  0.38734000  0.51165000  0.08680000  1.0 -0.5501309174
O  O80  1  0.11266000  0.01165000  0.41320000  1.0 -0.5501309174
O  O81  1  0.66050000  0.09332000  0.05693000  1.0 -0.5314526223
O  O82  1  0.83950000  0.59332000  0.44307000  1.0 -0.5314526223
O  O83  1  0.66050000  0.40668000  0.94307000  1.0 -0.5314526223
O  O84  1  0.83950000  0.90668000  0.55693000  1.0 -0.5314526223
O  O85  1  0.33950000  0.90668000  0.94307000  1.0 -0.5314526223
O  O86  1  0.16050000  0.40668000  0.55693000  1.0 -0.5314526223
O  O87  1  0.33950000  0.59332000  0.05693000  1.0 -0.5314526223
O  O88  1  0.16050000  0.09332000  0.44307000  1.0 -0.5314526223
O  O89  1  0.65650000  0.22256000  0.11663000  1.0 -0.359344922
O  O90  1  0.84350000  0.72256000  0.38337000  1.0 -0.359344922
O  O91  1  0.65650000  0.27744000  0.88337000  1.0 -0.359344922
O  O92  1  0.84350000  0.77744000  0.61663000  1.0 -0.359344922
O  O93  1  0.34350000  0.77744000  0.88337000  1.0 -0.359344922
O  O94  1  0.15650000  0.27744000  0.61663000  1.0 -0.359344922
O  O95  1  0.34350000  0.72256000  0.11663000  1.0 -0.359344922
O  O96  1  0.15650000  0.22256000  0.38337000  1.0 -0.359344922
O  O97  1  0.69780000  0.24005000  0.18658000  1.0 -0.4200648815
O  O98  1  0.80220000  0.74005000  0.31342000  1.0 -0.4200648815
O  O99  1  0.69780000  0.25995000  0.81342000  1.0 -0.4200648815
O  O100  1  0.80220000  0.75995000  0.68658000  1.0 -0.4200648815
O  O101  1  0.30220000  0.75995000  0.81342000  1.0 -0.4200648815
O  O102  1  0.19780000  0.25995000  0.68658000  1.0 -0.4200648815
O  O103  1  0.30220000  0.74005000  0.18658000  1.0 -0.4200648815
O  O104  1  0.19780000  0.24005000  0.31342000  1.0 -0.4200648815
O  O105  1  0.03730000  0.05368000  0.10557000  1.0 -0.3798158525
O  O106  1  0.46270000  0.55368000  0.39443000  1.0 -0.3798158525
O  O107  1  0.03730000  0.44632000  0.89443000  1.0 -0.3798158525
O  O108  1  0.46270000  0.94632000  0.60557000  1.0 -0.3798158525
O  O109  1  0.96270000  0.94632000  0.89443000  1.0 -0.3798158525
O  O110  1  0.53730000  0.44632000  0.60557000  1.0 -0.3798158525
O  O111  1  0.96270000  0.55368000  0.10557000  1.0 -0.3798158525
O  O112  1  0.53730000  0.05368000  0.39443000  1.0 -0.3798158525
O  O113  1  0.89880000  0.09980000  0.05831000  1.0 0.0289909337
O  O114  1  0.60120000  0.59980000  0.44169000  1.0 0.0210676918
O  O115  1  0.89880000  0.40020000  0.94169000  1.0 0.0289909337
O  O116  1  0.60120000  0.90020000  0.55831000  1.0 0.0289909337
O  O117  1  0.10120000  0.90020000  0.94169000  1.0 0.0289909337
O  O118  1  0.39880000  0.40020000  0.55831000  1.0 0.0289909337
O  O119  1  0.10120000  0.59980000  0.05831000  1.0 0.0210676918
O  O120  1  0.39880000  0.09980000  0.44169000  1.0 0.0289909337
