# DDEC6 charges by PACMAN v1.1 (https://github.com/mtap-research/PACMAN-charge/)
data_ja3082523_si_004_FSR_pacman
_symmetry_space_group_name_H-M   'P 1'
_cell_length_a   42.98060000
_cell_length_b   42.98060000
_cell_length_c   42.98060000
_cell_angle_alpha   90.00000000
_cell_angle_beta   90.00000000
_cell_angle_gamma   90.00000000
_symmetry_Int_Tables_number   1
_chemical_formula_structural   Zn32H318.5C865O200
_chemical_formula_sum   'Zn32 H318.5 C865 O200'
_cell_volume   79399.43674314
_cell_formula_units_Z   1
loop_
 _symmetry_equiv_pos_site_id
 _symmetry_equiv_pos_as_xyz
  1  'x, y, z'
loop_
 _atom_site_type_symbol
 _atom_site_label
 _atom_site_symmetry_multiplicity
 _atom_site_fract_x
 _atom_site_fract_y
 _atom_site_fract_z
 _atom_site_occupancy
 _atom_site_charge
Zn  Zn1  1  0.77868000  0.76386000  0.21954000  1.0 0.9294790855
Zn  Zn2  1  0.72732000  0.71435000  0.21885000  1.0 0.9455172866
Zn  Zn3  1  0.72773000  0.76382000  0.26874000  1.0 0.9390668943
Zn  Zn4  1  0.77637000  0.71354000  0.26933000  1.0 0.9390668943
Zn  Zn5  1  0.77608000  0.76564000  0.76509000  1.0 0.9294790855
Zn  Zn6  1  0.72528000  0.71548000  0.76308000  1.0 0.9390668943
Zn  Zn7  1  0.77653000  0.71583000  0.71489000  1.0 0.9390668943
Zn  Zn8  1  0.72643000  0.76580000  0.71460000  1.0 0.9390668943
Zn  Zn9  1  0.77698000  0.26563000  0.27083000  1.0 0.9221220214
Zn  Zn10  1  0.72683000  0.21592000  0.27067000  1.0 0.9294790855
Zn  Zn11  1  0.77630000  0.21614000  0.22018000  1.0 0.9390668943
Zn  Zn12  1  0.72696000  0.26658000  0.22179000  1.0 0.9221220214
Zn  Zn13  1  0.77762000  0.26906000  0.71902000  1.0 0.9221220214
Zn  Zn14  1  0.72717000  0.21981000  0.71725000  1.0 0.9294790855
Zn  Zn15  1  0.72709000  0.26832000  0.76839000  1.0 0.9294790855
Zn  Zn16  1  0.77739000  0.21872000  0.76741000  1.0 0.9390668943
Zn  Zn17  1  0.27922000  0.76657000  0.26961000  1.0 0.9221220214
Zn  Zn18  1  0.22885000  0.71724000  0.26975000  1.0 0.9221220214
Zn  Zn19  1  0.27858000  0.71665000  0.21983000  1.0 0.9294790855
Zn  Zn20  1  0.22952000  0.76797000  0.22074000  1.0 0.9221220214
Zn  Zn21  1  0.27807000  0.76469000  0.71770000  1.0 0.9221220214
Zn  Zn22  1  0.22743000  0.71577000  0.71662000  1.0 0.9294790855
Zn  Zn23  1  0.22857000  0.76378000  0.76839000  1.0 0.9390668943
Zn  Zn24  1  0.27834000  0.71424000  0.76620000  1.0 0.9294790855
Zn  Zn25  1  0.27764000  0.26745000  0.22129000  1.0 0.9294790855
Zn  Zn26  1  0.22776000  0.21752000  0.22056000  1.0 0.9294790855
Zn  Zn27  1  0.22809000  0.26782000  0.27081000  1.0 0.9221220214
Zn  Zn28  1  0.27652000  0.21758000  0.27165000  1.0 0.9221220214
Zn  Zn29  1  0.27715000  0.26510000  0.77095000  1.0 0.9221220214
Zn  Zn30  1  0.22655000  0.21656000  0.77116000  1.0 0.9221220214
Zn  Zn31  1  0.27722000  0.21555000  0.72116000  1.0 0.9294790855
Zn  Zn32  1  0.22729000  0.26566000  0.72099000  1.0 0.9221220214
H  H1  1  0.80421000  0.72604000  0.12232000  1.0 0.1102457166
H  H2  1  0.80364000  0.72653000  0.06539000  1.0 0.1102457166
H  H3  1  0.70790000  0.75772000  0.12461000  1.0 0.1102457166
H  H4  1  0.70849000  0.76338000  0.06686000  1.0 0.1003396363
H  H5  1  0.72278000  0.78069000  0.36179000  1.0 0.1102457166
H  H6  1  0.72408000  0.78324000  0.41749000  1.0 0.1003396363
H  H7  1  0.77798000  0.69673000  0.36421000  1.0 0.1102457166
H  H8  1  0.77539000  0.69666000  0.42067000  1.0 0.1003396363
H  H9  1  0.87465000  0.77183000  0.20468000  1.0 0.1102457166
H  H10  1  0.93105000  0.77295000  0.20431000  1.0 0.1003396363
H  H11  1  0.87518000  0.71055000  0.28572000  1.0 0.1102457166
H  H12  1  0.93334000  0.71018000  0.28474000  1.0 0.1102457166
H  H13  1  0.63089000  0.71162000  0.20136000  1.0 0.1102457166
H  H14  1  0.57422000  0.71529000  0.20146000  1.0 0.1102457166
H  H15  1  0.63376000  0.76748000  0.28636000  1.0 0.1102457166
H  H16  1  0.57765000  0.76960000  0.28612000  1.0 0.0929554519
H  H17  1  0.77407000  0.85950000  0.19446000  1.0 0.1102457166
H  H18  1  0.77178000  0.91834000  0.19193000  1.0 0.1003396363
H  H19  1  0.73208000  0.86282000  0.28699000  1.0 0.1102457166
H  H20  1  0.73229000  0.91962000  0.28554000  1.0 0.1003396363
H  H21  1  0.78407000  0.62104000  0.28237000  1.0 0.1003396363
H  H22  1  0.78506000  0.56579000  0.28400000  1.0 0.0929554519
H  H23  1  0.72465000  0.61790000  0.20155000  1.0 0.1102457166
H  H24  1  0.72947000  0.56151000  0.20030000  1.0 0.1003396363
H  H25  1  0.79881000  0.76227000  0.85965000  1.0 0.1102457166
H  H26  1  0.79991000  0.76442000  0.91599000  1.0 0.1003396363
H  H27  1  0.70708000  0.71865000  0.86173000  1.0 0.1102457166
H  H28  1  0.70816000  0.71979000  0.92003000  1.0 0.1102457166
H  H29  1  0.79023000  0.70888000  0.62024000  1.0 0.1102457166
H  H30  1  0.79017000  0.70944000  0.56380000  1.0 0.1003396363
H  H31  1  0.71546000  0.77605000  0.62105000  1.0 0.1102457166
H  H32  1  0.71583000  0.77740000  0.56496000  1.0 0.0929554519
H  H33  1  0.78938000  0.86137000  0.77959000  1.0 0.1102457166
H  H34  1  0.79126000  0.91812000  0.78115000  1.0 0.1003396363
H  H35  1  0.71932000  0.86490000  0.70595000  1.0 0.1102457166
H  H36  1  0.72163000  0.92334000  0.70712000  1.0 0.1102457166
H  H37  1  0.70876000  0.62153000  0.76676000  1.0 0.1102457166
H  H38  1  0.70774000  0.56533000  0.76643000  1.0 0.1003396363
H  H39  1  0.79103000  0.62066000  0.70909000  1.0 0.1102457166
H  H40  1  0.79049000  0.56419000  0.70915000  1.0 0.1003396363
H  H41  1  0.87124000  0.78115000  0.77885000  1.0 0.1102457166
H  H42  1  0.92726000  0.78527000  0.77974000  1.0 0.1003396363
H  H43  1  0.87656000  0.70754000  0.70909000  1.0 0.119761788
H  H44  1  0.93467000  0.70975000  0.71159000  1.0 0.1003396363
H  H45  1  0.63231000  0.78078000  0.70636000  1.0 0.1102457166
H  H46  1  0.57667000  0.78323000  0.70724000  1.0 0.1003396363
H  H47  1  0.63018000  0.70418000  0.77118000  1.0 0.1102457166
H  H48  1  0.57380000  0.70440000  0.76973000  1.0 0.1003396363
H  H49  1  0.53223000  0.73428000  0.78614000  1.0 0.1102457166
H  H50  1  0.79433000  0.26939000  0.36365000  1.0 0.1102457166
H  H51  1  0.79588000  0.27077000  0.41972000  1.0 0.1003396363
H  H52  1  0.71161000  0.21235000  0.36692000  1.0 0.1102457166
H  H53  1  0.71294000  0.21394000  0.42359000  1.0 0.1003396363
H  H54  1  0.78898000  0.21163000  0.12459000  1.0 0.1102457166
H  H55  1  0.78831000  0.21384000  0.06814000  1.0 0.1003396363
H  H56  1  0.71232000  0.27647000  0.12808000  1.0 0.1102457166
H  H57  1  0.71151000  0.27891000  0.07204000  1.0 0.0929554519
H  H58  1  0.79116000  0.35996000  0.28009000  1.0 0.1102457166
H  H59  1  0.79292000  0.41609000  0.27979000  1.0 0.1003396363
H  H60  1  0.71457000  0.36174000  0.21505000  1.0 0.1102457166
H  H61  1  0.71632000  0.41807000  0.21444000  1.0 0.1102457166
H  H62  1  0.71326000  0.12070000  0.27717000  1.0 0.1102457166
H  H63  1  0.71329000  0.06438000  0.27663000  1.0 0.0929554519
H  H64  1  0.79135000  0.12146000  0.21386000  1.0 0.1102457166
H  H65  1  0.79149000  0.06497000  0.21330000  1.0 0.1102457166
H  H66  1  0.87201000  0.28259000  0.28100000  1.0 0.1102457166
H  H67  1  0.92816000  0.28542000  0.28217000  1.0 0.1003396363
H  H68  1  0.87609000  0.20744000  0.21283000  1.0 0.119761788
H  H69  1  0.93420000  0.20823000  0.21585000  1.0 0.1003396363
H  H70  1  0.63325000  0.28065000  0.21407000  1.0 0.1102457166
H  H71  1  0.57751000  0.28251000  0.21429000  1.0 0.1003396363
H  H72  1  0.63123000  0.20314000  0.27790000  1.0 0.1102457166
H  H73  1  0.57475000  0.20328000  0.27625000  1.0 0.1003396363
H  H74  1  0.79195000  0.27967000  0.62589000  1.0 0.1102457166
H  H75  1  0.79305000  0.28229000  0.57076000  1.0 0.0929554519
H  H76  1  0.71733000  0.21257000  0.62158000  1.0 0.1102457166
H  H77  1  0.72023000  0.21285000  0.56528000  1.0 0.1003396363
H  H78  1  0.72291000  0.28751000  0.86483000  1.0 0.1102457166
H  H79  1  0.72399000  0.29013000  0.92073000  1.0 0.1003396363
H  H80  1  0.77772000  0.20215000  0.86668000  1.0 0.119761788
H  H81  1  0.77506000  0.20192000  0.92487000  1.0 0.1003396363
H  H82  1  0.87284000  0.27976000  0.70889000  1.0 0.1102457166
H  H83  1  0.92908000  0.28028000  0.70977000  1.0 0.1003396363
H  H84  1  0.87213000  0.21021000  0.78140000  1.0 0.1102457166
H  H85  1  0.92863000  0.20960000  0.78147000  1.0 0.1003396363
H  H86  1  0.63045000  0.21796000  0.70089000  1.0 0.1102457166
H  H87  1  0.57379000  0.21927000  0.70215000  1.0 0.1003396363
H  H88  1  0.63344000  0.27122000  0.78601000  1.0 0.1102457166
H  H89  1  0.57723000  0.27199000  0.78773000  1.0 0.0929554519
H  H90  1  0.78390000  0.36305000  0.70486000  1.0 0.1102457166
H  H91  1  0.78091000  0.41933000  0.70198000  1.0 0.1003396363
H  H92  1  0.71624000  0.36315000  0.77913000  1.0 0.1102457166
H  H93  1  0.71572000  0.41915000  0.77852000  1.0 0.1003396363
H  H94  1  0.78015000  0.12482000  0.78253000  1.0 0.1102457166
H  H95  1  0.78176000  0.06920000  0.78325000  1.0 0.0929554519
H  H96  1  0.73105000  0.12269000  0.69520000  1.0 0.1102457166
H  H97  1  0.73564000  0.06604000  0.69401000  1.0 0.1003396363
H  H98  1  0.29653000  0.77041000  0.36316000  1.0 0.1102457166
H  H99  1  0.29804000  0.77062000  0.41939000  1.0 0.1003396363
H  H100  1  0.21387000  0.71323000  0.36533000  1.0 0.1102457166
H  H101  1  0.21470000  0.71437000  0.42199000  1.0 0.1003396363
H  H102  1  0.29145000  0.71181000  0.12393000  1.0 0.1102457166
H  H103  1  0.29050000  0.71358000  0.06743000  1.0 0.1003396363
H  H104  1  0.21566000  0.77767000  0.12721000  1.0 0.1102457166
H  H105  1  0.21483000  0.77985000  0.07101000  1.0 0.0929554519
H  H106  1  0.29389000  0.86050000  0.27978000  1.0 0.1102457166
H  H107  1  0.29411000  0.91625000  0.28337000  1.0 0.1003396363
H  H108  1  0.21674000  0.86437000  0.21564000  1.0 0.1102457166
H  H109  1  0.21675000  0.92083000  0.21898000  1.0 0.1102457166
H  H110  1  0.21552000  0.62250000  0.27923000  1.0 0.1102457166
H  H111  1  0.21580000  0.56600000  0.28090000  1.0 0.1003396363
H  H112  1  0.28990000  0.62036000  0.21177000  1.0 0.1102457166
H  H113  1  0.28871000  0.56376000  0.21237000  1.0 0.1102457166
H  H114  1  0.37214000  0.78280000  0.27413000  1.0 0.1102457166
H  H115  1  0.42851000  0.78480000  0.27393000  1.0 0.1003396363
H  H116  1  0.37479000  0.70164000  0.21480000  1.0 0.1102457166
H  H117  1  0.43173000  0.70233000  0.21691000  1.0 0.1003396363
H  H118  1  0.13585000  0.78207000  0.21225000  1.0 0.1102457166
H  H119  1  0.08019000  0.78402000  0.21236000  1.0 0.1003396363
H  H120  1  0.13367000  0.70653000  0.27834000  1.0 0.1102457166
H  H121  1  0.07729000  0.70666000  0.27668000  1.0 0.1003396363
H  H122  1  0.29427000  0.77314000  0.62613000  1.0 0.1003396363
H  H123  1  0.29598000  0.77750000  0.57154000  1.0 0.1003396363
H  H124  1  0.21513000  0.71173000  0.61954000  1.0 0.1102457166
H  H125  1  0.21799000  0.71414000  0.56324000  1.0 0.1003396363
H  H126  1  0.22876000  0.78479000  0.86331000  1.0 0.1102457166
H  H127  1  0.23031000  0.78814000  0.91927000  1.0 0.1003396363
H  H128  1  0.27752000  0.69578000  0.86628000  1.0 0.119761788
H  H129  1  0.27551000  0.69702000  0.92477000  1.0 0.1003396363
H  H130  1  0.37193000  0.77327000  0.70390000  1.0 0.1102457166
H  H131  1  0.42813000  0.77368000  0.70298000  1.0 0.1003396363
H  H132  1  0.37338000  0.70574000  0.77833000  1.0 0.1102457166
H  H133  1  0.42992000  0.70572000  0.77719000  1.0 0.1003396363
H  H134  1  0.13141000  0.71613000  0.70050000  1.0 0.1102457166
H  H135  1  0.07490000  0.71932000  0.70126000  1.0 0.1102457166
H  H136  1  0.13539000  0.77015000  0.78516000  1.0 0.1102457166
H  H137  1  0.07923000  0.77303000  0.78618000  1.0 0.1003396363
H  H138  1  0.26867000  0.86114000  0.69376000  1.0 0.1102457166
H  H139  1  0.26629000  0.92010000  0.69372000  1.0 0.1102457166
H  H140  1  0.24168000  0.86114000  0.79178000  1.0 0.1102457166
H  H141  1  0.24137000  0.91787000  0.79221000  1.0 0.1003396363
H  H142  1  0.27936000  0.62223000  0.78396000  1.0 0.1102457166
H  H143  1  0.27975000  0.56700000  0.78791000  1.0 0.1003396363
H  H144  1  0.22559000  0.61650000  0.69960000  1.0 0.1102457166
H  H145  1  0.22839000  0.55966000  0.70176000  1.0 0.1003396363
H  H146  1  0.28712000  0.28112000  0.12744000  1.0 0.1102457166
H  H147  1  0.28692000  0.28384000  0.07180000  1.0 0.0929554519
H  H148  1  0.21912000  0.20733000  0.12434000  1.0 0.1102457166
H  H149  1  0.22150000  0.20748000  0.06783000  1.0 0.1003396363
H  H150  1  0.22079000  0.28337000  0.36543000  1.0 0.1102457166
H  H151  1  0.22137000  0.28537000  0.42123000  1.0 0.1003396363
H  H152  1  0.28233000  0.20411000  0.36734000  1.0 0.1102457166
H  H153  1  0.27993000  0.20349000  0.42379000  1.0 0.1003396363
H  H154  1  0.37327000  0.27131000  0.20724000  1.0 0.1102457166
H  H155  1  0.42952000  0.27147000  0.20709000  1.0 0.1003396363
H  H156  1  0.37306000  0.21019000  0.28669000  1.0 0.1102457166
H  H157  1  0.42974000  0.20873000  0.28586000  1.0 0.1003396363
H  H158  1  0.13217000  0.21682000  0.20385000  1.0 0.1102457166
H  H159  1  0.07559000  0.21895000  0.20440000  1.0 0.1102457166
H  H160  1  0.13498000  0.27281000  0.28726000  1.0 0.1102457166
H  H161  1  0.07880000  0.27481000  0.28803000  1.0 0.0929554519
H  H162  1  0.28390000  0.36392000  0.20645000  1.0 0.1102457166
H  H163  1  0.28018000  0.42055000  0.20511000  1.0 0.1102457166
H  H164  1  0.21903000  0.36160000  0.28304000  1.0 0.1102457166
H  H165  1  0.21881000  0.41721000  0.28472000  1.0 0.1003396363
H  H166  1  0.28213000  0.12493000  0.28812000  1.0 0.1102457166
H  H167  1  0.28229000  0.06988000  0.29198000  1.0 0.1003396363
H  H168  1  0.22244000  0.11955000  0.20769000  1.0 0.1102457166
H  H169  1  0.22549000  0.06300000  0.20928000  1.0 0.1003396363
H  H170  1  0.29200000  0.27219000  0.86521000  1.0 0.1102457166
H  H171  1  0.29348000  0.27319000  0.92129000  1.0 0.1003396363
H  H172  1  0.21153000  0.21196000  0.86643000  1.0 0.1102457166
H  H173  1  0.21199000  0.21207000  0.92311000  1.0 0.1102457166
H  H174  1  0.29124000  0.21002000  0.62507000  1.0 0.1102457166
H  H175  1  0.29117000  0.21133000  0.56855000  1.0 0.1003396363
H  H176  1  0.21404000  0.27421000  0.62669000  1.0 0.1102457166
H  H177  1  0.21387000  0.27573000  0.57049000  1.0 0.0929554519
H  H178  1  0.29335000  0.35926000  0.77690000  1.0 0.1102457166
H  H179  1  0.29438000  0.41495000  0.77993000  1.0 0.1003396363
H  H180  1  0.21286000  0.36298000  0.71738000  1.0 0.1102457166
H  H181  1  0.21341000  0.41957000  0.71983000  1.0 0.1102457166
H  H182  1  0.21387000  0.12324000  0.78225000  1.0 0.1102457166
H  H183  1  0.21472000  0.06720000  0.78668000  1.0 0.1003396363
H  H184  1  0.29020000  0.12014000  0.71691000  1.0 0.1102457166
H  H185  1  0.28990000  0.06398000  0.71783000  1.0 0.1102457166
H  H186  1  0.37029000  0.27910000  0.77992000  1.0 0.1102457166
H  H187  1  0.42595000  0.28208000  0.78025000  1.0 0.1003396363
H  H188  1  0.37429000  0.20411000  0.71324000  1.0 0.1102457166
H  H189  1  0.43085000  0.20515000  0.71566000  1.0 0.1003396363
H  H190  1  0.13336000  0.27951000  0.71178000  1.0 0.1102457166
H  H191  1  0.07783000  0.28233000  0.71248000  1.0 0.1003396363
H  H192  1  0.13056000  0.20334000  0.77711000  1.0 0.1102457166
H  H193  1  0.07408000  0.20370000  0.77513000  1.0 0.1003396363
H  H194  1  0.80538000  0.96408000  0.75764000  1.0 0.1102457166
H  H195  1  0.71352000  0.02599000  0.72369000  1.0 0.1102457166
H  H196  1  0.29849000  0.96335000  0.73098000  1.0 0.1102457166
H  H197  1  0.20542000  0.02151000  0.76735000  1.0 0.1102457166
H  H198  1  0.30250000  0.96321000  0.26906000  1.0 0.1102457166
H  H199  1  0.20879000  0.02119000  0.23697000  1.0 0.1102457166
H  H200  1  0.79845000  0.96231000  0.22967000  1.0 0.1102457166
H  H201  1  0.70283000  0.02254000  0.24875000  1.0 0.1102457166
H  H202  1  0.80537000  0.45971000  0.25659000  1.0 0.1102457166
H  H203  1  0.71187000  0.52020000  0.22844000  1.0 0.1102457166
H  H204  1  0.30205000  0.46163000  0.76606000  1.0 0.1102457166
H  H205  1  0.20877000  0.51967000  0.73285000  1.0 0.1102457166
H  H206  1  0.79642000  0.46173000  0.73254000  1.0 0.1102457166
H  H207  1  0.69873000  0.52215000  0.73900000  1.0 0.1102457166
H  H208  1  0.70239000  0.75168000  0.52246000  0.5 0.1102457166
H  H209  1  0.85667000  0.76386000  0.54918000  0.5 0.1309228071
H  H210  1  0.79612000  0.72579000  0.46145000  0.5 0.1102457166
H  H211  1  0.70874000  0.80277000  0.50955000  0.5 0.119761788
H  H212  1  0.62277000  0.83929000  0.44266000  0.5 0.1392232751
H  H213  1  0.75097000  0.90989000  0.48480000  0.5 0.1309228071
H  H214  1  0.64069000  0.93793000  0.50312000  0.5 0.1392232751
H  H215  1  0.84877000  0.92997000  0.53518000  0.5 0.1392232751
H  H216  1  0.73864000  0.90353000  0.55637000  0.5 0.1309228071
H  H217  1  0.79480000  0.85304000  0.51106000  0.5 0.1309228071
H  H218  1  0.20837000  0.74635000  0.52285000  0.5 0.1102457166
H  H219  1  0.36392000  0.78485000  0.54518000  0.5 0.1309228071
H  H220  1  0.30659000  0.74369000  0.46322000  0.5 0.1102457166
H  H221  1  0.21011000  0.79868000  0.51242000  0.5 0.119761788
H  H222  1  0.12317000  0.83123000  0.44461000  0.5 0.1309228071
H  H223  1  0.23794000  0.91808000  0.49333000  0.5 0.119761788
H  H224  1  0.12509000  0.92409000  0.51593000  0.5 0.1392232751
H  H225  1  0.33209000  0.94894000  0.54177000  0.5 0.1392232751
H  H226  1  0.22892000  0.90276000  0.56459000  0.5 0.1309228071
H  H227  1  0.29060000  0.86685000  0.51147000  0.5 0.1309228071
H  H228  1  0.20207000  0.25091000  0.52666000  0.5 0.1102457166
H  H229  1  0.35923000  0.26718000  0.54965000  0.5 0.1309228071
H  H230  1  0.29762000  0.23261000  0.46567000  0.5 0.1102457166
H  H231  1  0.20493000  0.30242000  0.51602000  0.5 0.119761788
H  H232  1  0.12605000  0.34127000  0.44193000  0.5 0.1392232751
H  H233  1  0.25685000  0.40853000  0.47727000  0.5 0.1309228071
H  H234  1  0.14829000  0.44297000  0.49548000  0.5 0.1392232751
H  H235  1  0.35723000  0.43177000  0.52310000  0.5 0.1392232751
H  H236  1  0.24699000  0.41081000  0.54961000  0.5 0.1309228071
H  H237  1  0.29894000  0.35594000  0.50869000  0.5 0.119761788
H  H238  1  0.70785000  0.24461000  0.52459000  0.5 0.1102457166
H  H239  1  0.86395000  0.28496000  0.54418000  0.5 0.1309228071
H  H240  1  0.80527000  0.24481000  0.46356000  0.5 0.1102457166
H  H241  1  0.71155000  0.29785000  0.51352000  0.5 0.119761788
H  H242  1  0.61886000  0.32877000  0.45321000  0.5 0.1309228071
H  H243  1  0.73482000  0.41781000  0.49616000  0.5 0.1309228071
H  H244  1  0.62352000  0.42057000  0.52591000  0.5 0.1309228071
H  H245  1  0.83126000  0.44938000  0.54157000  0.5 0.1392232751
H  H246  1  0.73017000  0.40028000  0.56749000  0.5 0.1309228071
H  H247  1  0.79121000  0.36744000  0.51019000  0.5 0.1309228071
H  H248  1  0.84452000  0.55923000  0.77112000  0.5 0.1309228071
H  H249  1  0.63829000  0.43328000  0.76495000  0.5 0.1309228071
H  H250  1  0.67872000  0.49434000  0.85348000  0.5 0.119761788
H  H251  1  0.66824000  0.49949000  0.96129000  0.5 0.1309228071
H  H252  1  0.69800000  0.43358000  0.87205000  0.5 0.1309228071
H  H253  1  0.78421000  0.58942000  0.91514000  0.5 0.1309228071
H  H254  1  0.78120000  0.47735000  0.93761000  0.5 0.1392232751
H  H255  1  0.78088000  0.51056000  0.85369000  0.5 0.119761788
H  H256  1  0.36504000  0.53278000  0.78971000  0.5 0.1309228071
H  H257  1  0.22648000  0.42884000  0.79829000  0.5 0.119761788
H  H258  1  0.11964000  0.45611000  0.82804000  0.5 0.1392232751
H  H259  1  0.18578000  0.48306000  0.96981000  0.5 0.1309228071
H  H260  1  0.21978000  0.45655000  0.86438000  0.5 0.119761788
H  H261  1  0.31054000  0.56475000  0.91552000  0.5 0.1392232751
H  H262  1  0.29389000  0.46098000  0.96300000  0.5 0.1309228071
H  H263  1  0.29034000  0.51593000  0.87551000  0.5 0.119761788
H  H264  1  0.35068000  0.55489000  0.26682000  0.5 0.1309228071
H  H265  1  0.14925000  0.42313000  0.27885000  0.5 0.1309228071
H  H266  1  0.15799000  0.51721000  0.34436000  0.5 0.1309228071
H  H267  1  0.16889000  0.52647000  0.45953000  0.5 0.1309228071
H  H268  1  0.19829000  0.46073000  0.36994000  0.5 0.1309228071
H  H269  1  0.28769000  0.61241000  0.40224000  0.5 0.1392232751
H  H270  1  0.27995000  0.50396000  0.43869000  0.5 0.1392232751
H  H271  1  0.27932000  0.53091000  0.35394000  0.5 0.119761788
H  H272  1  0.86444000  0.54049000  0.29007000  0.5 0.1309228071
H  H273  1  0.72936000  0.43977000  0.29634000  0.5 0.1102457166
H  H274  1  0.61640000  0.45225000  0.31347000  0.5 0.1392232751
H  H275  1  0.67530000  0.47651000  0.46694000  0.5 0.1309228071
H  H276  1  0.69471000  0.49550000  0.35501000  0.5 0.119761788
H  H277  1  0.81525000  0.56765000  0.44364000  0.5 0.1392232751
H  H278  1  0.76289000  0.46628000  0.42682000  0.5 0.1309228071
H  H279  1  0.78438000  0.51501000  0.36748000  0.5 0.1102457166
H  H280  1  0.86487000  0.04078000  0.79049000  0.5 0.1309228071
H  H281  1  0.73069000  0.94783000  0.79391000  0.5 0.1102457166
H  H282  1  0.61733000  0.95468000  0.81097000  0.5 0.1392232751
H  H283  1  0.67608000  0.96762000  0.96573000  0.5 0.1309228071
H  H284  1  0.69021000  0.00029000  0.85621000  0.5 0.119761788
H  H285  1  0.81723000  0.05851000  0.94748000  0.5 0.1392232751
H  H286  1  0.75971000  0.96208000  0.92138000  0.5 0.1309228071
H  H287  1  0.78168000  0.01812000  0.86590000  0.5 0.119761788
H  H288  1  0.35482000  0.05374000  0.77067000  0.5 0.1309228071
H  H289  1  0.18303000  0.92252000  0.81511000  0.5 0.1392232751
H  H290  1  0.13387000  0.02666000  0.81907000  0.5 0.1392232751
H  H291  1  0.17983000  0.04285000  0.96691000  0.5 0.1309228071
H  H292  1  0.20235000  0.97669000  0.87618000  0.5 0.119761788
H  H293  1  0.30725000  0.10884000  0.91517000  0.5 0.1309228071
H  H294  1  0.28764000  0.99957000  0.94290000  0.5 0.1392232751
H  H295  1  0.28478000  0.03143000  0.85921000  0.5 0.1309228071
H  H296  1  0.36334000  0.03611000  0.29707000  0.5 0.1309228071
H  H297  1  0.22714000  0.93013000  0.29948000  0.5 0.119761788
H  H298  1  0.11682000  0.94831000  0.32226000  0.5 0.1392232751
H  H299  1  0.17889000  0.98091000  0.46676000  0.5 0.1309228071
H  H300  1  0.21574000  0.95537000  0.36236000  0.5 0.119761788
H  H301  1  0.30758000  0.07028000  0.43315000  0.5 0.1392232751
H  H302  1  0.28591000  0.95930000  0.45573000  0.5 0.1392232751
H  H303  1  0.28645000  0.01891000  0.38095000  0.5 0.119761788
H  H304  1  0.85427000  0.05018000  0.27309000  0.5 0.1309228071
H  H305  1  0.66403000  0.91548000  0.27976000  0.5 0.1392232751
H  H306  1  0.63994000  0.02047000  0.32001000  0.5 0.1309228071
H  H307  1  0.66666667  0.01655000  0.46018000  0.5 0.1392232751
H  H308  1  0.68689000  0.01683000  0.34697000  0.5 0.119761788
H  H309  1  0.80501000  0.10262000  0.42043000  0.5 0.1392232751
H  H310  1  0.75056000  0.00110000  0.42089000  0.5 0.1392232751
H  H311  1  0.77208000  0.03529000  0.35155000  0.5 0.1102457166
H  H312  1  0.70530000  0.74099000  0.02052000  0.5 0.119761788
H  H313  1  0.86161000  0.77970000  0.04660000  0.5 0.1309228071
H  H314  1  0.80376000  0.74001000  0.96105000  0.5 0.1102457166
H  H315  1  0.69495000  0.79103000  0.01922000  0.5 0.1102457166
H  H316  1  0.63232000  0.84580000  0.94010000  0.5 0.1392232751
H  H317  1  0.74526000  0.91118000  0.01334000  0.5 0.1309228071
H  H318  1  0.63191000  0.93063000  0.02009000  0.5 0.1309228071
H  H319  1  0.83706000  0.94144000  0.06207000  0.5 0.1392232751
H  H320  1  0.73020000  0.90436000  0.08447000  0.5 0.1309228071
H  H321  1  0.78418000  0.86362000  0.03777000  0.5 0.119761788
H  H322  1  0.20250000  0.75737000  0.02573000  0.5 0.1102457166
H  H323  1  0.35526000  0.76944000  0.05444000  0.5 0.1309228071
H  H324  1  0.29693000  0.72630000  0.96618000  0.5 0.1102457166
H  H325  1  0.20632000  0.80800000  0.01060000  0.5 0.119761788
H  H326  1  0.12731000  0.84206000  0.93427000  0.5 0.1392232751
H  H327  1  0.25262000  0.91482000  0.98286000  0.5 0.1309228071
H  H328  1  0.14158000  0.94467000  0.99139000  0.5 0.1392232751
H  H329  1  0.34699000  0.93471000  0.03996000  0.5 0.1392232751
H  H330  1  0.23557000  0.90849000  0.05423000  0.5 0.1309228071
H  H331  1  0.29232000  0.85718000  0.01476000  0.5 0.119761788
H  H332  1  0.20658000  0.23875000  0.02623000  0.5 0.1102457166
H  H333  1  0.36335000  0.28208000  0.04675000  0.5 0.1309228071
H  H334  1  0.30393000  0.24929000  0.96584000  0.5 0.1102457166
H  H335  1  0.21654000  0.29608000  0.01027000  0.5 0.119761788
H  H336  1  0.12114000  0.32859000  0.95507000  0.5 0.1309228071
H  H337  1  0.24290000  0.41676000  0.98598000  0.5 0.119761788
H  H338  1  0.13373000  0.42293000  0.02244000  0.5 0.1392232751
H  H339  1  0.34236000  0.44865000  0.02952000  0.5 0.1392232751
H  H340  1  0.24045000  0.40259000  0.05748000  0.5 0.1309228071
H  H341  1  0.30108000  0.36723000  0.00071000  0.5 0.1309228071
H  H342  1  0.70080000  0.25898000  0.02652000  0.5 0.1102457166
H  H343  1  0.85581000  0.26980000  0.05260000  0.5 0.1309228071
H  H344  1  0.79495000  0.22927000  0.96648000  0.5 0.1102457166
H  H345  1  0.70612000  0.30958000  0.01517000  0.5 0.119761788
H  H346  1  0.62307000  0.34603000  0.94446000  0.5 0.1392232751
H  H347  1  0.75040000  0.41785000  0.98509000  0.5 0.1309228071
H  H348  1  0.64046000  0.44504000  0.00672000  0.5 0.1392232751
H  H349  1  0.84865000  0.43502000  0.03561000  0.5 0.1392232751
H  H350  1  0.73824000  0.41004000  0.05769000  0.5 0.1309228071
H  H351  1  0.79276000  0.35837000  0.01522000  0.5 0.1309228071
H  H352  1  0.53374000  0.74161000  0.29468000  0.5 0.1102457166
H  H353  1  0.54140000  0.78214000  0.13477000  0.5 0.1309228071
H  H354  1  0.47293000  0.74448000  0.19710000  0.5 0.1102457166
H  H355  1  0.52556000  0.79026000  0.30729000  0.5 0.119761788
H  H356  1  0.43916000  0.82335000  0.37559000  0.5 0.1392232751
H  H357  1  0.49407000  0.89677000  0.25636000  0.5 0.119761788
H  H358  1  0.49379000  0.92595000  0.36777000  0.5 0.1309228071
H  H359  1  0.48524000  0.92054000  0.17294000  0.5 0.1392232751
H  H360  1  0.57751000  0.93821000  0.24008000  0.5 0.1392232751
H  H361  1  0.53225000  0.86450000  0.21453000  0.5 0.119761788
H  H362  1  0.54880000  0.78818000  0.63178000  0.5 0.1309228071
H  H363  1  0.47102000  0.74760000  0.68969000  0.5 0.1102457166
H  H364  1  0.51590000  0.79057000  0.78391000  0.5 0.119761788
H  H365  1  0.45667000  0.81105000  0.88038000  0.5 0.1309228071
H  H366  1  0.47938000  0.90660000  0.76373000  0.5 0.1309228071
H  H367  1  0.51321000  0.91382000  0.87369000  0.5 0.1392232751
H  H368  1  0.52004000  0.95062000  0.66529000  0.5 0.1309228071
H  H369  1  0.55011000  0.90013000  0.76445000  0.5 0.119761788
H  H370  1  0.49848000  0.86534000  0.70056000  0.5 0.1309228071
H  H371  1  0.53382000  0.24309000  0.79686000  0.5 0.119761788
H  H372  1  0.53869000  0.27880000  0.63647000  0.5 0.1309228071
H  H373  1  0.47127000  0.23836000  0.70080000  0.5 0.1102457166
H  H374  1  0.52628000  0.29236000  0.80887000  0.5 0.119761788
H  H375  1  0.44382000  0.32782000  0.88074000  0.5 0.1309228071
H  H376  1  0.49582000  0.39581000  0.75744000  0.5 0.1102457166
H  H377  1  0.50158000  0.42914000  0.86749000  0.5 0.1309228071
H  H378  1  0.48657000  0.41421000  0.67313000  0.5 0.1392232751
H  H379  1  0.58066000  0.44015000  0.73474000  0.5 0.1392232751
H  H380  1  0.53349000  0.36419000  0.71338000  0.5 0.119761788
H  H381  1  0.53327000  0.23427000  0.29281000  0.5 0.1102457166
H  H382  1  0.54994000  0.28383000  0.13650000  0.5 0.1309228071
H  H383  1  0.47246000  0.24580000  0.19597000  0.5 0.1102457166
H  H384  1  0.51661000  0.29116000  0.28770000  0.5 0.119761788
H  H385  1  0.45938000  0.31501000  0.38463000  0.5 0.1309228071
H  H386  1  0.47981000  0.40542000  0.26255000  0.5 0.1309228071
H  H387  1  0.51254000  0.41872000  0.37238000  0.5 0.1392232751
H  H388  1  0.51641000  0.44684000  0.16221000  0.5 0.1309228071
H  H389  1  0.55122000  0.40156000  0.26253000  0.5 0.119761788
H  H390  1  0.49752000  0.36319000  0.20116000  0.5 0.1309228071
H  H391  1  0.03578000  0.73730000  0.29205000  0.5 0.1102457166
H  H392  1  0.05148000  0.78584000  0.13541000  0.5 0.1309228071
H  H393  1  0.97501000  0.74752000  0.19496000  0.5 0.1102457166
H  H394  1  0.01965000  0.79373000  0.28752000  0.5 0.119761788
H  H395  1  0.95985000  0.81792000  0.38279000  0.5 0.1309228071
H  H396  1  0.98043000  0.90844000  0.26197000  0.5 0.1309228071
H  H397  1  0.01420000  0.92124000  0.37142000  0.5 0.1392232751
H  H398  1  0.01856000  0.94881000  0.16176000  0.5 0.1309228071
H  H399  1  0.05187000  0.90406000  0.26257000  0.5 0.119761788
H  H400  1  0.00011000  0.86502000  0.20103000  0.5 0.1309228071
H  H401  1  0.03465000  0.74676000  0.79493000  0.5 0.1102457166
H  H402  1  0.04012000  0.78386000  0.63441000  0.5 0.1309228071
H  H403  1  0.97402000  0.74570000  0.69747000  0.5 0.1102457166
H  H404  1  0.02715000  0.79516000  0.80754000  0.5 0.119761788
H  H405  1  0.94059000  0.82956000  0.87496000  0.5 0.1392232751
H  H406  1  0.99501000  0.90075000  0.75358000  0.5 0.119761788
H  H407  1  0.99387000  0.93263000  0.86423000  0.5 0.1309228071
H  H408  1  0.98342000  0.92293000  0.66994000  0.5 0.1392232751
H  H409  1  0.07620000  0.94186000  0.73605000  0.5 0.1392232751
H  H410  1  0.03182000  0.86771000  0.71268000  0.5 0.119761788
H  H411  1  0.03237000  0.23254000  0.79132000  0.5 0.1102457166
H  H412  1  0.03734000  0.28425000  0.63163000  0.5 0.1309228071
H  H413  1  0.97155000  0.25460000  0.69623000  0.5 0.1102457166
H  H414  1  0.02272000  0.28626000  0.79847000  0.5 0.119761788
H  H415  1  0.94519000  0.31469000  0.87868000  0.5 0.1309228071
H  H416  1  0.98433000  0.39131000  0.75638000  0.5 0.1102457166
H  H417  1  0.99961000  0.41800000  0.86716000  0.5 0.1309228071
H  H418  1  0.97494000  0.40810000  0.67351000  0.5 0.1392232751
H  H419  1  0.06621000  0.45120000  0.72906000  0.5 0.1392232751
H  H420  1  0.01638000  0.36757000  0.70797000  0.5 0.119761788
H  H421  1  0.03526000  0.24680000  0.29736000  0.5 0.1102457166
H  H422  1  0.03811000  0.28307000  0.13651000  0.5 0.1309228071
H  H423  1  0.97452000  0.24237000  0.19985000  0.5 0.119761788
H  H424  1  0.02818000  0.29432000  0.31079000  0.5 0.119761788
H  H425  1  0.94201000  0.32907000  0.37847000  0.5 0.1309228071
H  H426  1  0.99784000  0.39929000  0.25652000  0.5 0.1102457166
H  H427  1  0.99653000  0.43146000  0.36710000  0.5 0.1309228071
H  H428  1  0.98334000  0.42313000  0.17350000  0.5 0.1392232751
H  H429  1  0.07825000  0.44019000  0.23706000  0.5 0.1392232751
H  H430  1  0.03325000  0.36695000  0.21504000  0.5 0.119761788
C  C1  1  0.75487000  0.74062000  0.16255000  1.0 0.5893040693
C  C2  1  0.75549000  0.74252000  0.12819000  1.0 -0.0515686083
C  C3  1  0.78362000  0.73413000  0.11026000  1.0 -0.1010006325
C  C4  1  0.78334000  0.73482000  0.07768000  1.0 -0.1496200002
C  C5  1  0.75550000  0.74584000  0.06024000  1.0 0.0929554519
C  C6  1  0.72891000  0.75172000  0.11205000  1.0 -0.1010006325
C  C7  1  0.72920000  0.75436000  0.07782000  1.0 -0.1603615404
C  C8  1  0.75094000  0.73821000  0.32493000  1.0 0.5893040693
C  C9  1  0.75013000  0.73840000  0.35795000  1.0 -0.1010006325
C  C10  1  0.73426000  0.76198000  0.37423000  1.0 -0.0787089185
C  C11  1  0.73395000  0.76274000  0.40685000  1.0 -0.1496200002
C  C12  1  0.74807000  0.73902000  0.42486000  1.0 0.0704872405
C  C13  1  0.76545000  0.71539000  0.37562000  1.0 -0.0787089185
C  C14  1  0.76425000  0.71559000  0.40834000  1.0 -0.1496200002
C  C15  1  0.83482000  0.73970000  0.24557000  1.0 0.600892489
C  C16  1  0.86966000  0.74039000  0.24563000  1.0 -0.0390877677
C  C17  1  0.88711000  0.75835000  0.22193000  1.0 -0.1085004615
C  C18  1  0.91969000  0.75845000  0.22145000  1.0 -0.1496200002
C  C19  1  0.93830000  0.74117000  0.24519000  1.0 0.0704872405
C  C20  1  0.88689000  0.72398000  0.26792000  1.0 -0.1190357683
C  C21  1  0.92141000  0.72444000  0.26777000  1.0 -0.1496200002
C  C22  1  0.67134000  0.73906000  0.24445000  1.0 0.5893040693
C  C23  1  0.63825000  0.73974000  0.24451000  1.0 -0.1085004615
C  C24  1  0.61954000  0.72442000  0.21986000  1.0 -0.0787089185
C  C25  1  0.58693000  0.72697000  0.21979000  1.0 -0.1402830219
C  C26  1  0.57082000  0.74266000  0.24384000  1.0 0.0791173845
C  C27  1  0.62155000  0.75574000  0.26772000  1.0 -0.0787089185
C  C28  1  0.58882000  0.75657000  0.26770000  1.0 -0.1310892536
C  C29  1  0.75326000  0.82113000  0.24174000  1.0 0.600892489
C  C30  1  0.75301000  0.85593000  0.24002000  1.0 -0.0515686083
C  C31  1  0.76457000  0.87212000  0.21408000  1.0 -0.1085004615
C  C32  1  0.76312000  0.90669000  0.21252000  1.0 -0.180055684
C  C33  1  0.75034000  0.92414000  0.23700000  1.0 0.0929554519
C  C34  1  0.74036000  0.87443000  0.26622000  1.0 -0.1190357683
C  C35  1  0.74001000  0.90695000  0.26518000  1.0 -0.1496200002
C  C36  1  0.75289000  0.65779000  0.24233000  1.0 0.5893040693
C  C37  1  0.75442000  0.62466000  0.24164000  1.0 -0.1010006325
C  C38  1  0.77218000  0.60853000  0.26402000  1.0 -0.0714419671
C  C39  1  0.77392000  0.57594000  0.26412000  1.0 -0.1402830219
C  C40  1  0.75924000  0.55750000  0.24114000  1.0 0.0791173845
C  C41  1  0.73869000  0.60667000  0.21924000  1.0 -0.0787089185
C  C42  1  0.74124000  0.57390000  0.21879000  1.0 -0.1603615404
C  C43  1  0.75211000  0.74125000  0.65880000  1.0 0.5893040693
C  C44  1  0.75255000  0.74206000  0.62573000  1.0 -0.1085004615
C  C45  1  0.75276000  0.74325000  0.55881000  1.0 0.0791173845
C  C46  1  0.75115000  0.74018000  0.82100000  1.0 0.600892489
C  C47  1  0.75208000  0.74021000  0.85566000  1.0 -0.0515686083
C  C48  1  0.75332000  0.74207000  0.92398000  1.0 0.0704872405
C  C49  1  0.83372000  0.74201000  0.74189000  1.0 0.600892489
C  C50  1  0.86859000  0.74321000  0.74358000  1.0 -0.0288818137
C  C51  1  0.93733000  0.74584000  0.74679000  1.0 0.0704872405
C  C52  1  0.66959000  0.74123000  0.73839000  1.0 0.5893040693
C  C53  1  0.63641000  0.74192000  0.73820000  1.0 -0.1085004615
C  C54  1  0.56915000  0.74269000  0.73694000  1.0 0.0791173845
C  C55  1  0.75246000  0.82304000  0.74119000  1.0 0.600892489
C  C56  1  0.75364000  0.85789000  0.74211000  1.0 -0.0515686083
C  C57  1  0.75618000  0.92623000  0.74352000  1.0 0.0791173845
C  C58  1  0.75046000  0.65943000  0.73831000  1.0 0.5893040693
C  C59  1  0.75011000  0.62626000  0.73811000  1.0 -0.1085004615
C  C60  1  0.74941000  0.55917000  0.73822000  1.0 0.0791173845
C  C61  1  0.77920000  0.75307000  0.87252000  1.0 -0.1010006325
C  C62  1  0.78005000  0.75356000  0.90503000  1.0 -0.1496200002
C  C63  1  0.72729000  0.72840000  0.87319000  1.0 -0.1085004615
C  C64  1  0.72775000  0.72966000  0.90764000  1.0 -0.1496200002
C  C65  1  0.77377000  0.72390000  0.60847000  1.0 -0.0787089185
C  C66  1  0.77402000  0.72465000  0.57574000  1.0 -0.1402830219
C  C67  1  0.73189000  0.76122000  0.60897000  1.0 -0.0787089185
C  C68  1  0.73182000  0.76164000  0.57631000  1.0 -0.1496200002
C  C69  1  0.77474000  0.87447000  0.76382000  1.0 -0.1010006325
C  C70  1  0.77600000  0.90705000  0.76447000  1.0 -0.1603615404
C  C71  1  0.73497000  0.87594000  0.72231000  1.0 -0.1085004615
C  C72  1  0.73618000  0.91044000  0.72312000  1.0 -0.1603615404
C  C73  1  0.72685000  0.60943000  0.75405000  1.0 -0.0787089185
C  C74  1  0.72613000  0.57671000  0.75357000  1.0 -0.1496200002
C  C75  1  0.77285000  0.60893000  0.72201000  1.0 -0.0787089185
C  C76  1  0.77277000  0.57617000  0.72244000  1.0 -0.1496200002
C  C77  1  0.88469000  0.76520000  0.76474000  1.0 -0.1190357683
C  C78  1  0.91725000  0.76671000  0.76607000  1.0 -0.1496200002
C  C79  1  0.88717000  0.72405000  0.72486000  1.0 -0.1190357683
C  C80  1  0.92167000  0.72571000  0.72613000  1.0 -0.1496200002
C  C81  1  0.61992000  0.76360000  0.72004000  1.0 -0.0714419671
C  C82  1  0.58720000  0.76425000  0.71970000  1.0 -0.1496200002
C  C83  1  0.61873000  0.72115000  0.75651000  1.0 -0.0787089185
C  C84  1  0.58595000  0.72160000  0.75592000  1.0 -0.1496200002
C  C85  1  0.75101000  0.24255000  0.16470000  1.0 0.5893040693
C  C86  1  0.75064000  0.24378000  0.13151000  1.0 -0.1010006325
C  C87  1  0.74989000  0.24659000  0.06439000  1.0 0.0704872405
C  C88  1  0.75209000  0.24050000  0.32696000  1.0 0.5893040693
C  C89  1  0.75279000  0.24086000  0.36011000  1.0 -0.1010006325
C  C90  1  0.75433000  0.24269000  0.42708000  1.0 0.0704872405
C  C91  1  0.83395000  0.24211000  0.24624000  1.0 0.600892489
C  C92  1  0.86878000  0.24332000  0.24727000  1.0 -0.0390877677
C  C93  1  0.93740000  0.24478000  0.25049000  1.0 0.0704872405
C  C94  1  0.67064000  0.24123000  0.24600000  1.0 0.5893040693
C  C95  1  0.63745000  0.24144000  0.24558000  1.0 -0.1085004615
C  C96  1  0.57022000  0.24173000  0.24367000  1.0 0.0791173845
C  C97  1  0.75232000  0.32246000  0.24718000  1.0 0.5893040693
C  C98  1  0.75287000  0.35566000  0.24737000  1.0 -0.1085004615
C  C99  1  0.75504000  0.42279000  0.24670000  1.0 0.0791173845
C  C100  1  0.75182000  0.15959000  0.24539000  1.0 0.5893040693
C  C101  1  0.75217000  0.12633000  0.24540000  1.0 -0.1085004615
C  C102  1  0.75224000  0.05914000  0.24464000  1.0 0.0704872405
C  C103  1  0.77633000  0.25704000  0.37625000  1.0 -0.0787089185
C  C104  1  0.77747000  0.25743000  0.40891000  1.0 -0.1496200002
C  C105  1  0.73014000  0.22524000  0.37810000  1.0 -0.0787089185
C  C106  1  0.73067000  0.22656000  0.41088000  1.0 -0.1402830219
C  C107  1  0.77192000  0.22644000  0.11344000  1.0 -0.0787089185
C  C108  1  0.77177000  0.22812000  0.08067000  1.0 -0.1310892536
C  C109  1  0.72905000  0.26250000  0.11541000  1.0 -0.0787089185
C  C110  1  0.72838000  0.26358000  0.08268000  1.0 -0.1496200002
C  C111  1  0.77476000  0.37224000  0.26541000  1.0 -0.0787089185
C  C112  1  0.77612000  0.40496000  0.26472000  1.0 -0.1496200002
C  C113  1  0.73186000  0.37326000  0.22934000  1.0 -0.0787089185
C  C114  1  0.73272000  0.40602000  0.22923000  1.0 -0.1402830219
C  C115  1  0.73051000  0.10899000  0.26300000  1.0 -0.0787089185
C  C116  1  0.73026000  0.07621000  0.26228000  1.0 -0.1402830219
C  C117  1  0.77415000  0.10940000  0.22779000  1.0 -0.0787089185
C  C118  1  0.77448000  0.07661000  0.22780000  1.0 -0.1402830219
C  C119  1  0.88520000  0.26572000  0.26772000  1.0 -0.1190357683
C  C120  1  0.91777000  0.26660000  0.26914000  1.0 -0.1496200002
C  C121  1  0.88699000  0.22379000  0.22859000  1.0 -0.1190357683
C  C122  1  0.92147000  0.22471000  0.23003000  1.0 -0.1496200002
C  C123  1  0.62092000  0.26320000  0.22743000  1.0 -0.0787089185
C  C124  1  0.58820000  0.26356000  0.22674000  1.0 -0.1496200002
C  C125  1  0.61978000  0.22029000  0.26341000  1.0 -0.0787089185
C  C126  1  0.58698000  0.22058000  0.26261000  1.0 -0.1496200002
C  C127  1  0.75356000  0.24525000  0.66203000  1.0 0.5893040693
C  C128  1  0.75466000  0.24578000  0.62890000  1.0 -0.1085004615
C  C129  1  0.77616000  0.26475000  0.61306000  1.0 -0.0714419671
C  C130  1  0.77751000  0.26540000  0.58040000  1.0 -0.1603615404
C  C131  1  0.75761000  0.24690000  0.56165000  1.0 0.0791173845
C  C132  1  0.73438000  0.22756000  0.61063000  1.0 -0.0787089185
C  C133  1  0.73581000  0.22816000  0.57788000  1.0 -0.1496200002
C  C134  1  0.75079000  0.24320000  0.82543000  1.0 0.600892489
C  C135  1  0.74986000  0.24351000  0.86040000  1.0 -0.0390877677
C  C136  1  0.73353000  0.26853000  0.87753000  1.0 -0.1190357683
C  C137  1  0.73304000  0.26925000  0.91013000  1.0 -0.1496200002
C  C138  1  0.74761000  0.24417000  0.92945000  1.0 0.0704872405
C  C139  1  0.76510000  0.22072000  0.87812000  1.0 -0.1190357683
C  C140  1  0.76399000  0.22104000  0.91277000  1.0 -0.1603615404
C  C141  1  0.83399000  0.24476000  0.74443000  1.0 0.5893040693
C  C142  1  0.86726000  0.24496000  0.74506000  1.0 -0.1010006325
C  C143  1  0.88459000  0.26433000  0.72499000  1.0 -0.0787089185
C  C144  1  0.91737000  0.26415000  0.72514000  1.0 -0.1496200002
C  C145  1  0.93456000  0.24485000  0.74564000  1.0 0.0704872405
C  C146  1  0.88421000  0.22568000  0.76558000  1.0 -0.0787089185
C  C147  1  0.91704000  0.22571000  0.76595000  1.0 -0.1402830219
C  C148  1  0.67054000  0.24383000  0.74291000  1.0 0.5893040693
C  C149  1  0.63722000  0.24437000  0.74341000  1.0 -0.1010006325
C  C150  1  0.61919000  0.22995000  0.71998000  1.0 -0.0787089185
C  C151  1  0.58631000  0.23116000  0.72049000  1.0 -0.1310892536
C  C152  1  0.56990000  0.24575000  0.74507000  1.0 0.0791173845
C  C153  1  0.62090000  0.25962000  0.76747000  1.0 -0.0787089185
C  C154  1  0.58814000  0.25975000  0.76864000  1.0 -0.1402830219
C  C155  1  0.75099000  0.32481000  0.74293000  1.0 0.5893040693
C  C156  1  0.74994000  0.35792000  0.74190000  1.0 -0.1010006325
C  C157  1  0.76838000  0.37495000  0.72076000  1.0 -0.0787089185
C  C158  1  0.76694000  0.40764000  0.71938000  1.0 -0.1496200002
C  C159  1  0.74700000  0.42490000  0.73907000  1.0 0.0791173845
C  C160  1  0.73036000  0.37498000  0.76194000  1.0 -0.0787089185
C  C161  1  0.72923000  0.40767000  0.76080000  1.0 -0.1402830219
C  C162  1  0.75373000  0.16342000  0.73974000  1.0 0.600892489
C  C163  1  0.75567000  0.12859000  0.73872000  1.0 -0.0390877677
C  C164  1  0.77070000  0.11237000  0.76277000  1.0 -0.1010006325
C  C165  1  0.77280000  0.07984000  0.76250000  1.0 -0.1310892536
C  C166  1  0.76094000  0.06188000  0.73761000  1.0 0.0704872405
C  C167  1  0.74284000  0.11111000  0.71420000  1.0 -0.1010006325
C  C168  1  0.74542000  0.07840000  0.71366000  1.0 -0.1496200002
C  C169  1  0.71912000  0.47681000  0.74258000  1.0 0.0566759681
C  C170  1  0.25395000  0.74341000  0.16398000  1.0 0.5893040693
C  C171  1  0.25359000  0.74451000  0.13076000  1.0 -0.1085004615
C  C172  1  0.25244000  0.74676000  0.06363000  1.0 0.0704872405
C  C173  1  0.25451000  0.74168000  0.32591000  1.0 0.5893040693
C  C174  1  0.25507000  0.74181000  0.35908000  1.0 -0.1010006325
C  C175  1  0.25622000  0.74282000  0.42608000  1.0 0.0704872405
C  C176  1  0.33511000  0.74133000  0.24450000  1.0 0.5893040693
C  C177  1  0.36828000  0.74182000  0.24476000  1.0 -0.1085004615
C  C178  1  0.43509000  0.74293000  0.24644000  1.0 0.0791173845
C  C179  1  0.17307000  0.74319000  0.24508000  1.0 0.5893040693
C  C180  1  0.13993000  0.74372000  0.24479000  1.0 -0.1085004615
C  C181  1  0.07279000  0.74410000  0.24287000  1.0 0.0791173845
C  C182  1  0.25482000  0.82389000  0.24637000  1.0 0.5893040693
C  C183  1  0.25523000  0.85718000  0.24748000  1.0 -0.1010006325
C  C184  1  0.25546000  0.92453000  0.25135000  1.0 0.0704872405
C  C185  1  0.25432000  0.95815000  0.25486000  1.0 0.0298260257
C  C186  1  0.25301000  0.66021000  0.24481000  1.0 0.5893040693
C  C187  1  0.25261000  0.62681000  0.24520000  1.0 -0.1010006325
C  C188  1  0.25146000  0.55931000  0.24633000  1.0 0.0929554519
C  C189  1  0.27856000  0.75780000  0.37554000  1.0 -0.0787089185
C  C190  1  0.27958000  0.75763000  0.40824000  1.0 -0.1496200002
C  C191  1  0.23232000  0.72603000  0.37677000  1.0 -0.0787089185
C  C192  1  0.23261000  0.72698000  0.40954000  1.0 -0.1496200002
C  C193  1  0.27456000  0.72678000  0.11273000  1.0 -0.0787089185
C  C194  1  0.27422000  0.72817000  0.07994000  1.0 -0.1310892536
C  C195  1  0.23218000  0.76342000  0.11458000  1.0 -0.0787089185
C  C196  1  0.23137000  0.76429000  0.08184000  1.0 -0.1496200002
C  C197  1  0.27704000  0.87324000  0.26603000  1.0 -0.0787089185
C  C198  1  0.27747000  0.90598000  0.26758000  1.0 -0.1603615404
C  C199  1  0.23387000  0.87543000  0.23045000  1.0 -0.0787089185
C  C200  1  0.23378000  0.90824000  0.23258000  1.0 -0.1402830219
C  C201  1  0.23166000  0.61017000  0.26432000  1.0 -0.0787089185
C  C202  1  0.23115000  0.57732000  0.26476000  1.0 -0.1496200002
C  C203  1  0.27322000  0.60895000  0.22683000  1.0 -0.08912768
C  C204  1  0.27282000  0.57605000  0.22755000  1.0 -0.1496200002
C  C205  1  0.38461000  0.76485000  0.26157000  1.0 -0.0787089185
C  C206  1  0.41729000  0.76578000  0.26184000  1.0 -0.1496200002
C  C207  1  0.38611000  0.71967000  0.22826000  1.0 -0.0787089185
C  C208  1  0.41890000  0.72009000  0.22936000  1.0 -0.1496200002
C  C209  1  0.12349000  0.76503000  0.22609000  1.0 -0.0714419671
C  C210  1  0.09079000  0.76542000  0.22535000  1.0 -0.1496200002
C  C211  1  0.12225000  0.72321000  0.26330000  1.0 -0.0787089185
C  C212  1  0.08949000  0.72353000  0.26250000  1.0 -0.1496200002
C  C213  1  0.25341000  0.74088000  0.66107000  1.0 0.5893040693
C  C214  1  0.25459000  0.74202000  0.62798000  1.0 -0.1010006325
C  C215  1  0.27737000  0.75996000  0.61282000  1.0 -0.0714419671
C  C216  1  0.27897000  0.76165000  0.58028000  1.0 -0.1496200002
C  C217  1  0.25777000  0.74558000  0.56077000  1.0 0.0791173845
C  C218  1  0.23321000  0.72584000  0.60909000  1.0 -0.0787089185
C  C219  1  0.23464000  0.72777000  0.57633000  1.0 -0.1496200002
C  C220  1  0.25305000  0.73827000  0.82471000  1.0 0.600892489
C  C221  1  0.25255000  0.73892000  0.85958000  1.0 -0.0390877677
C  C222  1  0.23809000  0.76530000  0.87628000  1.0 -0.1190357683
C  C223  1  0.23788000  0.76659000  0.90878000  1.0 -0.1496200002
C  C224  1  0.25049000  0.74073000  0.92833000  1.0 0.0704872405
C  C225  1  0.26646000  0.71544000  0.87752000  1.0 -0.1190357683
C  C226  1  0.26559000  0.71645000  0.91217000  1.0 -0.1603615404
C  C227  1  0.33438000  0.73937000  0.74156000  1.0 0.5893040693
C  C228  1  0.36751000  0.73944000  0.74112000  1.0 -0.1010006325
C  C229  1  0.38415000  0.75825000  0.72003000  1.0 -0.0787089185
C  C230  1  0.41684000  0.75806000  0.71917000  1.0 -0.1402830219
C  C231  1  0.43450000  0.73961000  0.73995000  1.0 0.0704872405
C  C232  1  0.38497000  0.72071000  0.76171000  1.0 -0.0787089185
C  C233  1  0.41774000  0.72102000  0.76131000  1.0 -0.1402830219
C  C234  1  0.17173000  0.74111000  0.74261000  1.0 0.5893040693
C  C235  1  0.13857000  0.74269000  0.74289000  1.0 -0.1085004615
C  C236  1  0.12039000  0.72864000  0.71940000  1.0 -0.0787089185
C  C237  1  0.08765000  0.73092000  0.71961000  1.0 -0.1310892536
C  C238  1  0.07158000  0.74639000  0.74384000  1.0 0.0791173845
C  C239  1  0.12262000  0.75871000  0.76668000  1.0 -0.0787089185
C  C240  1  0.08993000  0.76003000  0.76749000  1.0 -0.1402830219
C  C241  1  0.25422000  0.82136000  0.74218000  1.0 0.600892489
C  C242  1  0.25458000  0.85607000  0.74180000  1.0 -0.0515686083
C  C243  1  0.26237000  0.87309000  0.71502000  1.0 -0.1010006325
C  C244  1  0.26091000  0.90766000  0.71495000  1.0 -0.1698022022
C  C245  1  0.25181000  0.92405000  0.74166000  1.0 0.0929554519
C  C246  1  0.24640000  0.87350000  0.77034000  1.0 -0.1085004615
C  C247  1  0.24588000  0.90596000  0.77049000  1.0 -0.1496200002
C  C248  1  0.25239000  0.65912000  0.74029000  1.0 0.600892489
C  C249  1  0.25291000  0.62421000  0.74116000  1.0 -0.0390877677
C  C250  1  0.26854000  0.60898000  0.76545000  1.0 -0.08912768
C  C251  1  0.26973000  0.57651000  0.76711000  1.0 -0.1402830219
C  C252  1  0.25606000  0.55736000  0.74410000  1.0 0.0791173845
C  C253  1  0.23808000  0.60567000  0.71860000  1.0 -0.1010006325
C  C254  1  0.23957000  0.57286000  0.72007000  1.0 -0.1496200002
C  C255  1  0.25319000  0.24280000  0.16444000  1.0 0.5893040693
C  C256  1  0.25366000  0.24352000  0.13115000  1.0 -0.1085004615
C  C257  1  0.27285000  0.26455000  0.11487000  1.0 -0.0787089185
C  C258  1  0.27362000  0.26531000  0.08211000  1.0 -0.1496200002
C  C259  1  0.25575000  0.24453000  0.06371000  1.0 0.0791173845
C  C260  1  0.23472000  0.22362000  0.11310000  1.0 -0.0787089185
C  C261  1  0.23576000  0.22414000  0.08025000  1.0 -0.1496200002
C  C262  1  0.25177000  0.24316000  0.32778000  1.0 0.5893040693
C  C263  1  0.25121000  0.24336000  0.36109000  1.0 -0.1010006325
C  C264  1  0.23365000  0.26553000  0.37773000  1.0 -0.0787089185
C  C265  1  0.23307000  0.26589000  0.41053000  1.0 -0.1496200002
C  C266  1  0.24908000  0.24330000  0.42857000  1.0 0.0704872405
C  C267  1  0.26828000  0.22159000  0.37881000  1.0 -0.0787089185
C  C268  1  0.26718000  0.22152000  0.41166000  1.0 -0.1496200002
C  C269  1  0.33325000  0.24158000  0.24704000  1.0 0.600892489
C  C270  1  0.36829000  0.24087000  0.24699000  1.0 -0.0390877677
C  C271  1  0.38530000  0.25757000  0.22459000  1.0 -0.1010006325
C  C272  1  0.41801000  0.25705000  0.22418000  1.0 -0.1402830219
C  C273  1  0.43535000  0.23994000  0.24640000  1.0 0.0704872405
C  C274  1  0.38521000  0.22355000  0.26910000  1.0 -0.1085004615
C  C275  1  0.41803000  0.22315000  0.26887000  1.0 -0.1310892536
C  C276  1  0.17182000  0.24347000  0.24543000  1.0 0.5849798768
C  C277  1  0.13869000  0.24455000  0.24555000  1.0 -0.1085004615
C  C278  1  0.12085000  0.22960000  0.22239000  1.0 -0.0787089185
C  C279  1  0.08810000  0.23129000  0.22245000  1.0 -0.1402830219
C  C280  1  0.07174000  0.24704000  0.24629000  1.0 0.0791173845
C  C281  1  0.12245000  0.26085000  0.26894000  1.0 -0.0787089185
C  C282  1  0.08977000  0.26160000  0.26964000  1.0 -0.1310892536
C  C283  1  0.25243000  0.32417000  0.24496000  1.0 0.5893040693
C  C284  1  0.25124000  0.35745000  0.24445000  1.0 -0.1010006325
C  C285  1  0.26880000  0.37529000  0.22309000  1.0 -0.0787089185
C  C286  1  0.26677000  0.40814000  0.22248000  1.0 -0.1402830219
C  C287  1  0.24716000  0.42475000  0.24314000  1.0 0.0791173845
C  C288  1  0.23242000  0.37392000  0.26559000  1.0 -0.08912768
C  C289  1  0.23108000  0.40660000  0.26555000  1.0 -0.1496200002
C  C290  1  0.25190000  0.16093000  0.24642000  1.0 0.5893040693
C  C291  1  0.25257000  0.12758000  0.24733000  1.0 -0.1010006325
C  C292  1  0.26989000  0.11192000  0.27033000  1.0 -0.0714419671
C  C293  1  0.27095000  0.07926000  0.27186000  1.0 -0.1402830219
C  C294  1  0.25566000  0.05996000  0.24989000  1.0 0.0791173845
C  C295  1  0.23620000  0.10883000  0.22587000  1.0 -0.0787089185
C  C296  1  0.23777000  0.07589000  0.22707000  1.0 -0.1603615404
C  C297  1  0.25254000  0.24111000  0.66449000  1.0 0.5893040693
C  C298  1  0.25261000  0.24189000  0.63116000  1.0 -0.1010006325
C  C299  1  0.25244000  0.24358000  0.56375000  1.0 0.0704872405
C  C300  1  0.25166000  0.24155000  0.82759000  1.0 0.5893040693
C  C301  1  0.25176000  0.24199000  0.86089000  1.0 -0.1010006325
C  C302  1  0.25337000  0.24331000  0.92864000  1.0 0.0791173845
C  C303  1  0.33372000  0.24045000  0.74628000  1.0 0.5893040693
C  C304  1  0.36700000  0.24101000  0.74691000  1.0 -0.1010006325
C  C305  1  0.43431000  0.24235000  0.74975000  1.0 0.0704872405
C  C306  1  0.17047000  0.24084000  0.74503000  1.0 0.5893040693
C  C307  1  0.13721000  0.24108000  0.74424000  1.0 -0.1010006325
C  C308  1  0.06976000  0.24204000  0.74232000  1.0 0.0791173845
C  C309  1  0.25242000  0.32139000  0.74634000  1.0 0.6061447709
C  C310  1  0.25301000  0.35633000  0.74699000  1.0 -0.0515686083
C  C311  1  0.25399000  0.42326000  0.74997000  1.0 0.0704872405
C  C312  1  0.25191000  0.15979000  0.74771000  1.0 0.5893040693
C  C313  1  0.25196000  0.12659000  0.74915000  1.0 -0.1010006325
C  C314  1  0.25274000  0.05894000  0.75167000  1.0 0.0791173845
C  C315  1  0.27449000  0.25895000  0.87761000  1.0 -0.0787089185
C  C316  1  0.27565000  0.25916000  0.91041000  1.0 -0.1496200002
C  C317  1  0.22929000  0.22540000  0.87820000  1.0 -0.0787089185
C  C318  1  0.22916000  0.22588000  0.91093000  1.0 -0.1496200002
C  C319  1  0.27421000  0.22454000  0.61350000  1.0 -0.0787089185
C  C320  1  0.27439000  0.22568000  0.58065000  1.0 -0.1402830219
C  C321  1  0.23106000  0.26021000  0.61444000  1.0 -0.0787089185
C  C322  1  0.23069000  0.26072000  0.58164000  1.0 -0.1496200002
C  C323  1  0.27595000  0.37217000  0.76404000  1.0 -0.1010006325
C  C324  1  0.27673000  0.40479000  0.76523000  1.0 -0.1496200002
C  C325  1  0.23078000  0.37428000  0.73100000  1.0 -0.1010006325
C  C326  1  0.23109000  0.40703000  0.73263000  1.0 -0.1310892536
C  C327  1  0.23061000  0.11055000  0.76836000  1.0 -0.0787089185
C  C328  1  0.23042000  0.07793000  0.77023000  1.0 -0.1496200002
C  C329  1  0.27337000  0.10872000  0.73181000  1.0 -0.0787089185
C  C330  1  0.27373000  0.07597000  0.73294000  1.0 -0.1496200002
C  C331  1  0.38302000  0.26238000  0.76603000  1.0 -0.0787089185
C  C332  1  0.41571000  0.26332000  0.76709000  1.0 -0.1496200002
C  C333  1  0.38527000  0.22085000  0.72855000  1.0 -0.0787089185
C  C334  1  0.41812000  0.22164000  0.72981000  1.0 -0.1496200002
C  C335  1  0.12087000  0.26251000  0.72559000  1.0 -0.0787089185
C  C336  1  0.08813000  0.26333000  0.72506000  1.0 -0.1402830219
C  C337  1  0.11926000  0.22034000  0.76233000  1.0 -0.0787089185
C  C338  1  0.08640000  0.22086000  0.76141000  1.0 -0.1496200002
C  C339  1  0.75182000  0.74273000  0.52534000  1.0 0.0298260257
C  C340  1  0.25859000  0.74693000  0.52699000  1.0 0.0298260257
C  C341  1  0.25180000  0.24381000  0.53003000  1.0 0.0298260257
C  C342  1  0.75807000  0.24706000  0.52790000  1.0 0.0298260257
C  C343  1  0.77481000  0.47475000  0.73337000  1.0 -0.1698022022
C  C344  1  0.28078000  0.47364000  0.76017000  1.0 -0.1698022022
C  C345  1  0.27395000  0.47455000  0.23675000  1.0 -0.0714419671
C  C346  1  0.78425000  0.47256000  0.25181000  1.0 -0.1603615404
C  C347  1  0.78497000  0.97722000  0.75087000  1.0 -0.1698022022
C  C348  1  0.27736000  0.97600000  0.73655000  1.0 -0.1698022022
C  C349  1  0.28120000  0.97527000  0.26329000  1.0 -0.1698022022
C  C350  1  0.77714000  0.97562000  0.23234000  1.0 -0.1603615404
C  C351  1  0.75513000  0.74747000  0.02515000  1.0 0.0491877035
C  C352  1  0.25172000  0.74759000  0.03013000  1.0 0.0391418594
C  C353  1  0.25644000  0.24441000  0.02992000  1.0 0.0298260257
C  C354  1  0.74955000  0.24785000  0.03087000  1.0 0.0491877035
C  C355  1  0.53735000  0.74383000  0.24442000  1.0 0.0391418594
C  C356  1  0.53546000  0.74218000  0.73651000  1.0 0.0298260257
C  C357  1  0.53631000  0.24572000  0.74659000  1.0 0.0298260257
C  C358  1  0.53657000  0.24121000  0.24311000  1.0 0.0298260257
C  C359  1  0.03916000  0.74350000  0.24221000  1.0 0.0298260257
C  C360  1  0.03810000  0.74773000  0.74468000  1.0 0.0391418594
C  C361  1  0.03596000  0.24231000  0.74192000  1.0 0.0298260257
C  C362  1  0.03829000  0.24758000  0.24714000  1.0 0.0391418594
C  C363  1  0.72367000  0.74832000  0.50941000  0.5 -0.180055684
C  C364  1  0.77524000  0.73093000  0.47466000  0.5 -0.1698022022
C  C365  1  0.72207000  0.75038000  0.47664000  0.5 0.0491877035
C  C366  1  0.72010000  0.94125000  0.50854000  0.5 -0.0085061941
C  C367  1  0.77859000  0.73666000  0.50687000  0.5 0.0491877035
C  C368  1  0.65217000  0.79915000  0.45406000  0.5 0.2396305551
C  C369  1  0.68875000  0.80910000  0.49603000  0.5 -0.2381296113
C  C370  1  0.64066000  0.83012000  0.45789000  0.5 -0.2304039062
C  C371  1  0.65469000  0.85063000  0.47895000  0.5 0.0094011247
C  C372  1  0.67799000  0.78949000  0.47213000  0.5 0.0028447168
C  C373  1  0.67604000  0.83892000  0.50093000  0.5 0.2396305551
C  C374  1  0.69529000  0.76313000  0.46252000  0.5 -0.180055684
C  C375  1  0.67203000  0.90514000  0.48276000  0.5 0.0094011247
C  C376  1  0.70305000  0.89936000  0.47372000  0.5 0.2229733296
C  C377  1  0.68913000  0.95189000  0.51117000  0.5 0.231273927
C  C378  1  0.72687000  0.91615000  0.48870000  0.5 -0.2493187741
C  C379  1  0.66494000  0.93282000  0.49856000  0.5 -0.2381296113
C  C380  1  0.64861000  0.88285000  0.47709000  0.5 -0.0592391016
C  C381  1  0.80074000  0.94723000  0.53409000  0.5 0.2574203967
C  C382  1  0.78649000  0.88819000  0.55999000  0.5 0.2396305551
C  C383  1  0.81699000  0.89445000  0.54971000  0.5 -0.0085061941
C  C384  1  0.82461000  0.92481000  0.54014000  0.5 -0.2204398138
C  C385  1  0.74474000  0.95537000  0.52496000  0.5 -0.0787089185
C  C386  1  0.76951000  0.93757000  0.53697000  0.5 -0.0024835825
C  C387  1  0.76272000  0.90915000  0.55159000  0.5 -0.2381296113
C  C388  1  0.79907000  0.80295000  0.51142000  0.5 0.2396305551
C  C389  1  0.84306000  0.78359000  0.54140000  0.5 -0.2304039062
C  C390  1  0.85190000  0.81457000  0.54974000  0.5 0.2396305551
C  C391  1  0.81615000  0.77754000  0.52372000  0.5 0.0094011247
C  C392  1  0.83266000  0.83942000  0.54034000  0.5 0.0028447168
C  C393  1  0.80737000  0.83341000  0.52053000  0.5 -0.2381296113
C  C394  1  0.83954000  0.87057000  0.54869000  0.5 -0.0515686083
C  C395  1  0.80819000  0.74618000  0.51726000  0.5 -0.1603615404
C  C396  1  0.70116000  0.84505000  0.54713000  0.5 0.119761788
C  C397  1  0.75470000  0.85955000  0.59111000  0.5 0.1496746509
C  C398  1  0.65502000  0.98727000  0.53060000  0.5 0.1309228071
C  C399  1  0.76243000  0.82077000  0.47731000  0.5 0.159667984
C  C400  1  0.61694000  0.78794000  0.41620000  0.5 0.1496746509
C  C401  1  0.73645000  0.87678000  0.43941000  0.5 0.1392232751
C  C402  1  0.89482000  0.79831000  0.57611000  0.5 0.1496746509
C  C403  1  0.83524000  0.98474000  0.52007000  0.5 0.159667984
C  C404  1  0.74760000  0.73906000  0.45841000  0.5 0.0391418594
C  C405  1  0.23017000  0.74572000  0.51022000  0.5 -0.180055684
C  C406  1  0.28486000  0.74479000  0.47597000  0.5 -0.1698022022
C  C407  1  0.22886000  0.74863000  0.47740000  0.5 0.0491877035
C  C408  1  0.20284000  0.94067000  0.52075000  0.5 -0.0024835825
C  C409  1  0.28625000  0.74975000  0.50845000  0.5 0.0491877035
C  C410  1  0.15682000  0.79402000  0.45389000  0.5 0.248811639
C  C411  1  0.19026000  0.80426000  0.49836000  0.5 -0.2381296113
C  C412  1  0.14162000  0.82301000  0.45970000  0.5 -0.2204398138
C  C413  1  0.15238000  0.84320000  0.48290000  0.5 0.0028447168
C  C414  1  0.18245000  0.78544000  0.47275000  0.5 0.0094011247
C  C415  1  0.17469000  0.83252000  0.50450000  0.5 0.2396305551
C  C416  1  0.20233000  0.76121000  0.46254000  0.5 -0.180055684
C  C417  1  0.16107000  0.89914000  0.49224000  0.5 0.0028447168
C  C418  1  0.19242000  0.89956000  0.48251000  0.5 0.2013686944
C  C419  1  0.17062000  0.94530000  0.52492000  0.5 0.231273927
C  C420  1  0.21328000  0.91914000  0.49847000  0.5 -0.2381296113
C  C421  1  0.14977000  0.92352000  0.51086000  0.5 -0.2493187741
C  C422  1  0.14148000  0.87417000  0.48399000  0.5 -0.0592391016
C  C423  1  0.28198000  0.95809000  0.54463000  0.5 0.248811639
C  C424  1  0.27878000  0.89531000  0.56501000  0.5 0.231273927
C  C425  1  0.30730000  0.90756000  0.55432000  0.5 -0.0085061941
C  C426  1  0.30942000  0.93948000  0.54746000  0.5 -0.2381296113
C  C427  1  0.22512000  0.95743000  0.53798000  0.5 -0.08912768
C  C428  1  0.25294000  0.94316000  0.54776000  0.5 0.0094011247
C  C429  1  0.25154000  0.91276000  0.55972000  0.5 -0.2381296113
C  C430  1  0.30057000  0.81749000  0.51054000  0.5 0.231273927
C  C431  1  0.34801000  0.80304000  0.53799000  0.5 -0.2381296113
C  C432  1  0.35355000  0.83463000  0.54661000  0.5 0.231273927
C  C433  1  0.32093000  0.79412000  0.52187000  0.5 0.0094011247
C  C434  1  0.33087000  0.85702000  0.53905000  0.5 0.0028447168
C  C435  1  0.30593000  0.84863000  0.51963000  0.5 -0.2304039062
C  C436  1  0.33333333  0.88802000  0.54984000  0.5 -0.0592391016
C  C437  1  0.31429000  0.76188000  0.51977000  0.5 -0.1310892536
C  C438  1  0.19875000  0.83873000  0.55132000  0.5 0.1392232751
C  C439  1  0.25337000  0.85811000  0.59290000  0.5 0.1392232751
C  C440  1  0.13148000  0.97262000  0.54760000  0.5 0.1794843933
C  C441  1  0.25916000  0.83109000  0.48025000  0.5 0.159667984
C  C442  1  0.12555000  0.78295000  0.41257000  0.5 0.1309228071
C  C443  1  0.22837000  0.88606000  0.44607000  0.5 0.1309228071
C  C444  1  0.39932000  0.82316000  0.57058000  0.5 0.1680843371
C  C445  1  0.30921000  0.00196000  0.53335000  0.5 0.1496746509
C  C446  1  0.25638000  0.74395000  0.45956000  0.5 0.0391418594
C  C447  1  0.22363000  0.24893000  0.51378000  0.5 -0.180055684
C  C448  1  0.27631000  0.23581000  0.47880000  0.5 -0.1603615404
C  C449  1  0.22221000  0.25189000  0.48093000  0.5 0.0491877035
C  C450  1  0.22798000  0.44340000  0.49862000  0.5 -0.0085061941
C  C451  1  0.27897000  0.23968000  0.51148000  0.5 0.0491877035
C  C452  1  0.15333000  0.30047000  0.45585000  0.5 0.2396305551
C  C453  1  0.18736000  0.30999000  0.50004000  0.5 -0.2381296113
C  C454  1  0.14288000  0.33195000  0.45822000  0.5 -0.2304039062
C  C455  1  0.15726000  0.35277000  0.47876000  0.5 0.0094011247
C  C456  1  0.17757000  0.29031000  0.47575000  0.5 0.0028447168
C  C457  1  0.17722000  0.34119000  0.50210000  0.5 0.2396305551
C  C458  1  0.19512000  0.26386000  0.46685000  0.5 -0.1698022022
C  C459  1  0.17767000  0.40652000  0.47862000  0.5 0.0094011247
C  C460  1  0.20815000  0.39852000  0.46941000  0.5 0.2102321981
C  C461  1  0.19750000  0.45534000  0.50128000  0.5 0.2396305551
C  C462  1  0.23312000  0.41599000  0.48152000  0.5 -0.2493187741
C  C463  1  0.17219000  0.43612000  0.49135000  0.5 -0.2493187741
C  C464  1  0.15301000  0.38513000  0.47488000  0.5 -0.0714419671
C  C465  1  0.30968000  0.45015000  0.52129000  0.5 0.2574203967
C  C466  1  0.29461000  0.39486000  0.55410000  0.5 0.2396305551
C  C467  1  0.32500000  0.39913000  0.54247000  0.5 -0.0085061941
C  C468  1  0.33314000  0.42799000  0.52945000  0.5 -0.2204398138
C  C469  1  0.25369000  0.45855000  0.51225000  0.5 -0.1010006325
C  C470  1  0.27828000  0.44161000  0.52577000  0.5 -0.0085061941
C  C471  1  0.27112000  0.41532000  0.54381000  0.5 -0.2381296113
C  C472  1  0.30017000  0.30609000  0.51393000  0.5 0.231273927
C  C473  1  0.34584000  0.28690000  0.54145000  0.5 -0.2304039062
C  C474  1  0.35667000  0.31793000  0.54665000  0.5 0.248811639
C  C475  1  0.31747000  0.28078000  0.52621000  0.5 0.0094011247
C  C476  1  0.33793000  0.34292000  0.53664000  0.5 -0.0085061941
C  C477  1  0.31109000  0.33659000  0.51915000  0.5 -0.2304039062
C  C478  1  0.34653000  0.37426000  0.54223000  0.5 -0.0592391016
C  C479  1  0.30812000  0.24931000  0.52287000  0.5 -0.1603615404
C  C480  1  0.20294000  0.34963000  0.54774000  0.5 0.1102457166
C  C481  1  0.26205000  0.36892000  0.58680000  0.5 0.1496746509
C  C482  1  0.16540000  0.49343000  0.51900000  0.5 0.1496746509
C  C483  1  0.25917000  0.32363000  0.48506000  0.5 0.159667984
C  C484  1  0.12111000  0.29012000  0.41509000  0.5 0.1392232751
C  C485  1  0.23918000  0.37188000  0.43580000  0.5 0.1392232751
C  C486  1  0.40095000  0.30157000  0.57054000  0.5 0.1392232751
C  C487  1  0.34483000  0.48494000  0.50258000  0.5 0.1496746509
C  C488  1  0.24842000  0.24268000  0.46239000  0.5 0.0391418594
C  C489  1  0.72949000  0.24449000  0.51159000  0.5 -0.180055684
C  C490  1  0.78366000  0.24549000  0.47655000  0.5 -0.1698022022
C  C491  1  0.72760000  0.24764000  0.47883000  0.5 0.0491877035
C  C492  1  0.70103000  0.43890000  0.52621000  0.5 -0.0024835825
C  C493  1  0.78538000  0.25044000  0.50902000  0.5 0.0491877035
C  C494  1  0.65394000  0.29224000  0.45937000  0.5 0.2574203967
C  C495  1  0.69036000  0.30281000  0.50132000  0.5 -0.2381296113
C  C496  1  0.63854000  0.32079000  0.46676000  0.5 -0.2204398138
C  C497  1  0.65038000  0.34082000  0.48960000  0.5 0.0094011247
C  C498  1  0.68104000  0.28400000  0.47620000  0.5 0.0028447168
C  C499  1  0.67443000  0.33033000  0.50931000  0.5 0.2396305551
C  C500  1  0.70052000  0.25999000  0.46478000  0.5 -0.180055684
C  C501  1  0.65852000  0.39678000  0.49968000  0.5 0.0028447168
C  C502  1  0.68921000  0.39812000  0.48802000  0.5 0.2102321981
C  C503  1  0.66902000  0.44272000  0.53241000  0.5 0.231273927
C  C504  1  0.71052000  0.41812000  0.50284000  0.5 -0.2381296113
C  C505  1  0.64784000  0.42066000  0.51930000  0.5 -0.2493187741
C  C506  1  0.63895000  0.37152000  0.49213000  0.5 -0.0515686083
C  C507  1  0.78110000  0.45728000  0.54665000  0.5 0.248811639
C  C508  1  0.78016000  0.39405000  0.56573000  0.5 0.231273927
C  C509  1  0.80793000  0.40717000  0.55415000  0.5 -0.0024835825
C  C510  1  0.80905000  0.43926000  0.54792000  0.5 -0.2304039062
C  C511  1  0.72399000  0.45563000  0.54257000  0.5 -0.1010006325
C  C512  1  0.75253000  0.44163000  0.55060000  0.5 0.0028447168
C  C513  1  0.75232000  0.41093000  0.56187000  0.5 -0.2381296113
C  C514  1  0.80072000  0.31793000  0.50965000  0.5 0.231273927
C  C515  1  0.84828000  0.30327000  0.53679000  0.5 -0.2304039062
C  C516  1  0.85436000  0.33491000  0.54480000  0.5 0.231273927
C  C517  1  0.82089000  0.29448000  0.52119000  0.5 0.0094011247
C  C518  1  0.83177000  0.35741000  0.53732000  0.5 0.0028447168
C  C519  1  0.80656000  0.34913000  0.51821000  0.5 -0.2304039062
C  C520  1  0.83415000  0.38829000  0.54841000  0.5 -0.0515686083
C  C521  1  0.81351000  0.26236000  0.52030000  0.5 -0.1402830219
C  C522  1  0.70163000  0.33617000  0.55440000  0.5 0.1392232751
C  C523  1  0.75696000  0.35596000  0.59434000  0.5 0.1496746509
C  C524  1  0.63075000  0.46878000  0.55790000  0.5 0.1794843933
C  C525  1  0.75896000  0.33152000  0.47983000  0.5 0.159667984
C  C526  1  0.61989000  0.28091000  0.42043000  0.5 0.1309228071
C  C527  1  0.72335000  0.38553000  0.44955000  0.5 0.1309228071
C  C528  1  0.90029000  0.32320000  0.56832000  0.5 0.159667984
C  C529  1  0.80685000  0.50199000  0.53520000  0.5 0.1392232751
C  C530  1  0.75495000  0.24395000  0.46053000  0.5 0.0391418594
C  C531  1  0.74643000  0.45842000  0.73769000  0.5 0.0298260257
C  C532  1  0.74899000  0.52563000  0.73808000  0.5 0.0298260257
C  C533  1  0.70654000  0.48287000  0.93393000  0.5 -0.0024835825
C  C534  1  0.77665000  0.50734000  0.73749000  0.5 0.0491877035
C  C535  1  0.68419000  0.48442000  0.80458000  0.5 0.2396305551
C  C536  1  0.64712000  0.44639000  0.78460000  0.5 -0.2381296113
C  C537  1  0.67096000  0.48007000  0.83424000  0.5 -0.2304039062
C  C538  1  0.64817000  0.45739000  0.84007000  0.5 -0.0085061941
C  C539  1  0.67330000  0.46555000  0.77975000  0.5 0.0028447168
C  C540  1  0.63397000  0.44215000  0.81482000  0.5 0.248811639
C  C541  1  0.68860000  0.46292000  0.75074000  0.5 -0.209965732
C  C542  1  0.66052000  0.45550000  0.89604000  0.5 -0.0024835825
C  C543  1  0.65121000  0.47026000  0.92359000  0.5 0.2229733296
C  C544  1  0.71558000  0.46135000  0.91047000  0.5 0.248811639
C  C545  1  0.67478000  0.48437000  0.94218000  0.5 -0.2381296113
C  C546  1  0.69200000  0.44814000  0.89175000  0.5 -0.2304039062
C  C547  1  0.63955000  0.45110000  0.87119000  0.5 -0.0787089185
C  C548  1  0.75857000  0.55202000  0.93810000  0.5 0.248811639
C  C549  1  0.80257000  0.51291000  0.90841000  0.5 0.248811639
C  C550  1  0.80108000  0.54484000  0.90086000  0.5 -0.0183566475
C  C551  1  0.78258000  0.56457000  0.91906000  0.5 -0.209965732
C  C552  1  0.72469000  0.50794000  0.94546000  0.5 -0.1603615404
C  C553  1  0.75470000  0.51939000  0.93854000  0.5 0.0094011247
C  C554  1  0.77963000  0.50082000  0.92885000  0.5 -0.2493187741
C  C555  1  0.79333000  0.50940000  0.80528000  0.5 0.231273927
C  C556  1  0.83147000  0.54822000  0.78969000  0.5 -0.2304039062
C  C557  1  0.83495000  0.55844000  0.82109000  0.5 0.2396305551
C  C558  1  0.80956000  0.52541000  0.78146000  0.5 0.0179064981
C  C559  1  0.81649000  0.54446000  0.84438000  0.5 -0.0024835825
C  C560  1  0.79614000  0.52016000  0.83623000  0.5 -0.2304039062
C  C561  1  0.81570000  0.55761000  0.87451000  0.5 -0.0515686083
C  C562  1  0.80451000  0.51961000  0.74945000  0.5 -0.1603615404
C  C563  1  0.59690000  0.40870000  0.79733000  0.5 0.1309228071
C  C564  1  0.82646000  0.46607000  0.90267000  0.5 0.159667984
C  C565  1  0.75331000  0.43292000  0.88613000  0.5 0.1392232751
C  C566  1  0.76470000  0.46713000  0.82006000  0.5 0.1496746509
C  C567  1  0.71483000  0.52439000  0.82194000  0.5 0.1496746509
C  C568  1  0.61199000  0.48704000  0.95483000  0.5 0.1496746509
C  C569  1  0.87140000  0.59466000  0.80818000  0.5 0.1496746509
C  C570  1  0.74131000  0.59986000  0.95285000  0.5 0.1680843371
C  C571  1  0.72047000  0.50940000  0.73897000  0.5 -0.1698022022
C  C572  1  0.25340000  0.45678000  0.75294000  0.5 0.0298260257
C  C573  1  0.25687000  0.52381000  0.74603000  0.5 0.0391418594
C  C574  1  0.22630000  0.47500000  0.74718000  0.5 0.0391418594
C  C575  1  0.22470000  0.47837000  0.93921000  0.5 0.0094011247
C  C576  1  0.28222000  0.50649000  0.75878000  0.5 0.0491877035
C  C577  1  0.15188000  0.45376000  0.78872000  0.5 0.2574203967
C  C578  1  0.20233000  0.43234000  0.80230000  0.5 -0.2381296113
C  C579  1  0.14212000  0.44806000  0.81991000  0.5 -0.2204398138
C  C580  1  0.16328000  0.43695000  0.84198000  0.5 -0.0024835825
C  C581  1  0.18370000  0.44926000  0.78128000  0.5 0.0094011247
C  C582  1  0.19058000  0.42258000  0.83139000  0.5 0.248811639
C  C583  1  0.19573000  0.46752000  0.75669000  0.5 -0.1698022022
C  C584  1  0.18103000  0.45333000  0.89602000  0.5 -0.0085061941
C  C585  1  0.17112000  0.46142000  0.92625000  0.5 0.2396305551
C  C586  1  0.23501000  0.46723000  0.90994000  0.5 0.231273927
C  C587  1  0.19321000  0.47457000  0.94728000  0.5 -0.2493187741
C  C588  1  0.21246000  0.45778000  0.88817000  0.5 -0.2304039062
C  C589  1  0.15842000  0.44550000  0.87329000  0.5 -0.0787089185
C  C590  1  0.27946000  0.53642000  0.94391000  0.5 0.2396305551
C  C591  1  0.32638000  0.49009000  0.93684000  0.5 0.2396305551
C  C592  1  0.32878000  0.51875000  0.92108000  0.5 -0.0024835825
C  C593  1  0.30698000  0.54245000  0.92675000  0.5 -0.2381296113
C  C594  1  0.24340000  0.49624000  0.95962000  0.5 -0.1496200002
C  C595  1  0.27409000  0.50570000  0.95391000  0.5 0.0028447168
C  C596  1  0.29840000  0.48384000  0.95336000  0.5 -0.2381296113
C  C597  1  0.29619000  0.51758000  0.82589000  0.5 0.231273927
C  C598  1  0.34914000  0.52864000  0.80884000  0.5 -0.2304039062
C  C599  1  0.35990000  0.52961000  0.84020000  0.5 0.2396305551
C  C600  1  0.31817000  0.52127000  0.80153000  0.5 0.0179064981
C  C601  1  0.33834000  0.52440000  0.86439000  0.5 -0.0085061941
C  C602  1  0.30679000  0.51950000  0.85695000  0.5 -0.2381296113
C  C603  1  0.34884000  0.52120000  0.89542000  0.5 -0.0592391016
C  C604  1  0.30952000  0.52053000  0.76982000  0.5 -0.1310892536
C  C605  1  0.23029000  0.38868000  0.83990000  0.5 0.1392232751
C  C606  1  0.34623000  0.44200000  0.94650000  0.5 0.1309228071
C  C607  1  0.27493000  0.45193000  0.87835000  0.5 0.1496746509
C  C608  1  0.24530000  0.51295000  0.84086000  0.5 0.159667984
C  C609  1  0.10432000  0.47219000  0.77463000  0.5 0.1392232751
C  C610  1  0.13095000  0.46724000  0.96032000  0.5 0.1392232751
C  C611  1  0.40975000  0.54013000  0.82569000  0.5 0.1392232751
C  C612  1  0.26246000  0.58642000  0.94003000  0.5 0.159667984
C  C613  1  0.22961000  0.50673000  0.73889000  0.5 -0.1698022022
C  C614  1  0.24590000  0.45846000  0.24263000  0.5 0.0094011247
C  C615  1  0.25025000  0.52564000  0.24635000  0.5 0.0028447168
C  C616  1  0.21970000  0.47679000  0.25256000  0.5 0.0298260257
C  C617  1  0.20676000  0.51063000  0.43115000  0.5 0.0028447168
C  C618  1  0.27697000  0.50696000  0.24051000  0.5 0.0179064981
C  C619  1  0.16537000  0.49783000  0.29828000  0.5 0.248811639
C  C620  1  0.14968000  0.44415000  0.29282000  0.5 -0.2304039062
C  C621  1  0.15598000  0.49670000  0.32981000  0.5 -0.2381296113
C  C622  1  0.14323000  0.46952000  0.34276000  0.5 -0.0085061941
C  C623  1  0.16778000  0.46940000  0.28226000  0.5 -0.0085061941
C  C624  1  0.13621000  0.44425000  0.32319000  0.5 0.248811639
C  C625  1  0.19208000  0.46158000  0.26164000  0.5 -0.1190357683
C  C626  1  0.16046000  0.47955000  0.39624000  0.5 -0.0024835825
C  C627  1  0.15181000  0.49451000  0.42400000  0.5 0.2229733296
C  C628  1  0.21570000  0.48865000  0.40816000  0.5 0.2396305551
C  C629  1  0.17533000  0.51105000  0.44063000  0.5 -0.2381296113
C  C630  1  0.19210000  0.47520000  0.38965000  0.5 -0.2381296113
C  C631  1  0.13818000  0.46817000  0.37509000  0.5 -0.0592391016
C  C632  1  0.25960000  0.57890000  0.42826000  0.5 0.248811639
C  C633  1  0.30460000  0.53539000  0.40737000  0.5 0.248811639
C  C634  1  0.30465000  0.56613000  0.39577000  0.5 -0.0085061941
C  C635  1  0.28525000  0.58840000  0.40953000  0.5 -0.2204398138
C  C636  1  0.22486000  0.53644000  0.44109000  0.5 -0.1402830219
C  C637  1  0.25508000  0.54669000  0.43316000  0.5 0.0028447168
C  C638  1  0.28008000  0.52654000  0.42762000  0.5 -0.2493187741
C  C639  1  0.29176000  0.52013000  0.30676000  0.5 0.2396305551
C  C640  1  0.33581000  0.54942000  0.28643000  0.5 -0.2381296113
C  C641  1  0.34000000  0.56463000  0.31566000  0.5 0.231273927
C  C642  1  0.31112000  0.52869000  0.28140000  0.5 0.0094011247
C  C643  1  0.31954000  0.55737000  0.34033000  0.5 0.0028447168
C  C644  1  0.29577000  0.53541000  0.33551000  0.5 -0.2381296113
C  C645  1  0.32074000  0.57436000  0.36847000  0.5 -0.0592391016
C  C646  1  0.30621000  0.51708000  0.25094000  0.5 -0.0787089185
C  C647  1  0.11383000  0.39683000  0.31678000  0.5 0.1309228071
C  C648  1  0.32701000  0.48746000  0.40858000  0.5 0.1496746509
C  C649  1  0.25268000  0.45636000  0.38811000  0.5 0.1496746509
C  C650  1  0.25191000  0.49018000  0.32542000  0.5 0.1496746509
C  C651  1  0.16093000  0.55034000  0.29648000  0.5 0.159667984
C  C652  1  0.11357000  0.50876000  0.45760000  0.5 0.1392232751
C  C653  1  0.38117000  0.59291000  0.29807000  0.5 0.1496746509
C  C654  1  0.24198000  0.62849000  0.43417000  0.5 0.1309228071
C  C655  1  0.22242000  0.50964000  0.25345000  0.5 -0.1085004615
C  C656  1  0.75594000  0.45641000  0.24657000  0.5 0.0298260257
C  C657  1  0.76025000  0.52376000  0.24143000  0.5 0.0391418594
C  C658  1  0.72915000  0.47511000  0.24077000  0.5 0.0391418594
C  C659  1  0.70633000  0.49658000  0.43352000  0.5 0.0094011247
C  C660  1  0.78620000  0.50554000  0.25193000  0.5 0.0491877035
C  C661  1  0.65327000  0.45115000  0.27814000  0.5 0.2574203967
C  C662  1  0.70477000  0.44197000  0.29926000  0.5 -0.2381296113
C  C663  1  0.64105000  0.44910000  0.30899000  0.5 -0.2304039062
C  C664  1  0.66119000  0.44696000  0.33456000  0.5 0.0028447168
C  C665  1  0.68597000  0.45128000  0.27420000  0.5 0.0094011247
C  C666  1  0.69238000  0.43834000  0.32950000  0.5 0.2396305551
C  C667  1  0.69816000  0.46655000  0.24770000  0.5 -0.1603615404
C  C668  1  0.66768000  0.46920000  0.38785000  0.5 -0.0024835825
C  C669  1  0.65939000  0.46663000  0.41947000  0.5 0.248811639
C  C670  1  0.70947000  0.50568000  0.40212000  0.5 0.2396305551
C  C671  1  0.67966000  0.47984000  0.44236000  0.5 -0.2493187741
C  C672  1  0.69141000  0.49014000  0.37938000  0.5 -0.2304039062
C  C673  1  0.65008000  0.45386000  0.36461000  0.5 -0.0592391016
C  C674  1  0.77614000  0.53801000  0.45755000  0.5 0.248811639
C  C675  1  0.80381000  0.49416000  0.41660000  0.5 0.2396305551
C  C676  1  0.81565000  0.52478000  0.41812000  0.5 -0.0085061941
C  C677  1  0.80431000  0.54503000  0.44122000  0.5 -0.2304039062
C  C678  1  0.72798000  0.50688000  0.45611000  0.5 -0.1310892536
C  C679  1  0.75985000  0.51074000  0.44907000  0.5 0.0028447168
C  C680  1  0.77476000  0.48816000  0.43077000  0.5 -0.2493187741
C  C681  1  0.79763000  0.51023000  0.31994000  0.5 0.231273927
C  C682  1  0.84790000  0.53305000  0.30760000  0.5 -0.2381296113
C  C683  1  0.85439000  0.53788000  0.33998000  0.5 0.248811639
C  C684  1  0.81981000  0.51943000  0.29742000  0.5 0.0094011247
C  C685  1  0.83146000  0.52979000  0.36205000  0.5 -0.0085061941
C  C686  1  0.80329000  0.51742000  0.35136000  0.5 -0.2304039062
C  C687  1  0.83495000  0.53684000  0.39422000  0.5 -0.0515686083
C  C688  1  0.81314000  0.51888000  0.26503000  0.5 -0.1496200002
C  C689  1  0.73627000  0.41531000  0.34825000  0.5 0.1392232751
C  C690  1  0.80755000  0.44517000  0.39670000  0.5 0.159667984
C  C691  1  0.72592000  0.54285000  0.36807000  0.5 0.1680843371
C  C692  1  0.75218000  0.48597000  0.33186000  0.5 0.159667984
C  C693  1  0.60527000  0.45560000  0.25639000  0.5 0.1392232751
C  C694  1  0.62426000  0.45051000  0.45547000  0.5 0.1496746509
C  C695  1  0.90275000  0.55693000  0.33026000  0.5 0.159667984
C  C696  1  0.77709000  0.58337000  0.48472000  0.5 0.1392232751
C  C697  1  0.73275000  0.50711000  0.23393000  0.5 -0.1698022022
C  C698  1  0.75718000  0.96133000  0.74437000  0.5 0.0491877035
C  C699  1  0.76166000  0.02834000  0.73777000  0.5 0.0391418594
C  C700  1  0.72934000  0.98092000  0.73755000  0.5 0.0491877035
C  C701  1  0.70493000  0.99285000  0.93386000  0.5 0.0028447168
C  C702  1  0.78700000  0.01011000  0.74978000  0.5 0.0491877035
C  C703  1  0.65415000  0.95674000  0.77588000  0.5 0.2574203967
C  C704  1  0.70598000  0.94841000  0.79679000  0.5 -0.2381296113
C  C705  1  0.64203000  0.95256000  0.80648000  0.5 -0.2304039062
C  C706  1  0.66199000  0.94978000  0.83207000  0.5 -0.0024835825
C  C707  1  0.68680000  0.95744000  0.77186000  0.5 0.0094011247
C  C708  1  0.69379000  0.94347000  0.82699000  0.5 0.2396305551
C  C709  1  0.69853000  0.97311000  0.74547000  0.5 -0.1496200002
C  C710  1  0.66623000  0.96889000  0.88667000  0.5 -0.0085061941
C  C711  1  0.65868000  0.96287000  0.91801000  0.5 0.248811639
C  C712  1  0.70681000  0.00544000  0.90353000  0.5 0.2396305551
C  C713  1  0.67907000  0.97440000  0.94165000  0.5 -0.2493187741
C  C714  1  0.68827000  0.99208000  0.87992000  0.5 -0.2381296113
C  C715  1  0.64994000  0.95411000  0.86227000  0.5 -0.0515686083
C  C716  1  0.77698000  0.02940000  0.95913000  0.5 0.248811639
C  C717  1  0.80111000  0.98957000  0.91228000  0.5 0.2396305551
C  C718  1  0.81432000  0.01930000  0.91680000  0.5 -0.0183566475
C  C719  1  0.80488000  0.03706000  0.94263000  0.5 -0.2204398138
C  C720  1  0.72764000  0.00036000  0.95640000  0.5 -0.1310892536
C  C721  1  0.75921000  0.00404000  0.94823000  0.5 -0.0024835825
C  C722  1  0.77248000  0.98307000  0.92700000  0.5 -0.2381296113
C  C723  1  0.79491000  0.01585000  0.81795000  0.5 0.231273927
C  C724  1  0.84743000  0.03431000  0.80754000  0.5 -0.2304039062
C  C725  1  0.85363000  0.03717000  0.84015000  0.5 0.248811639
C  C726  1  0.81868000  0.02332000  0.79637000  0.5 0.0094011247
C  C727  1  0.82995000  0.02911000  0.86146000  0.5 -0.0085061941
C  C728  1  0.80081000  0.02010000  0.84987000  0.5 -0.2304039062
C  C729  1  0.83397000  0.03285000  0.89406000  0.5 -0.0515686083
C  C730  1  0.81322000  0.02365000  0.76384000  0.5 -0.1310892536
C  C731  1  0.73989000  0.92532000  0.84596000  0.5 0.1309228071
C  C732  1  0.80329000  0.94209000  0.88892000  0.5 0.1496746509
C  C733  1  0.72181000  0.04621000  0.87315000  0.5 0.159667984
C  C734  1  0.74543000  0.99932000  0.82724000  0.5 0.1680843371
C  C735  1  0.60597000  0.96250000  0.75465000  0.5 0.1392232751
C  C736  1  0.62443000  0.94278000  0.95270000  0.5 0.159667984
C  C737  1  0.90294000  0.05449000  0.83200000  0.5 0.1392232751
C  C738  1  0.78153000  0.07046000  0.99208000  0.5 0.1496746509
C  C739  1  0.73395000  0.01236000  0.72964000  0.5 -0.1698022022
C  C740  1  0.25004000  0.95899000  0.74195000  0.5 0.0491877035
C  C741  1  0.25215000  0.02538000  0.75124000  0.5 0.0298260257
C  C742  1  0.22274000  0.97599000  0.75548000  0.5 0.0566759681
C  C743  1  0.21491000  0.01839000  0.94146000  0.5 0.0028447168
C  C744  1  0.27944000  0.00762000  0.74474000  0.5 0.0491877035
C  C745  1  0.15794000  0.99299000  0.78962000  0.5 0.248811639
C  C746  1  0.17195000  0.94519000  0.81607000  0.5 -0.2304039062
C  C747  1  0.14463000  0.00390000  0.81794000  0.5 -0.2304039062
C  C748  1  0.14885000  0.98725000  0.84573000  0.5 -0.0085061941
C  C749  1  0.17563000  0.96543000  0.79075000  0.5 0.0094011247
C  C750  1  0.15876000  0.95596000  0.84434000  0.5 0.248811639
C  C751  1  0.20004000  0.95776000  0.77052000  0.5 -0.1995685358
C  C752  1  0.16651000  0.00281000  0.89952000  0.5 -0.0024835825
C  C753  1  0.15927000  0.01961000  0.92678000  0.5 0.231273927
C  C754  1  0.22008000  0.99519000  0.91874000  0.5 0.231273927
C  C755  1  0.18397000  0.02706000  0.94770000  0.5 -0.2381296113
C  C756  1  0.19634000  0.98965000  0.89667000  0.5 -0.2493187741
C  C757  1  0.14569000  0.00356000  0.87400000  0.5 -0.0592391016
C  C758  1  0.27769000  0.07708000  0.94172000  0.5 0.2574203967
C  C759  1  0.31257000  0.03013000  0.91132000  0.5 0.248811639
C  C760  1  0.31580000  0.06155000  0.90234000  0.5 -0.0085061941
C  C761  1  0.30203000  0.08477000  0.92059000  0.5 -0.209965732
C  C762  1  0.23749000  0.03965000  0.95273000  0.5 -0.1496200002
C  C763  1  0.26861000  0.04552000  0.94401000  0.5 0.0028447168
C  C764  1  0.28918000  0.02267000  0.93330000  0.5 -0.2493187741
C  C765  1  0.29534000  0.02088000  0.81147000  0.5 0.2396305551
C  C766  1  0.34013000  0.04863000  0.79054000  0.5 -0.2304039062
C  C767  1  0.34641000  0.06227000  0.82016000  0.5 0.2396305551
C  C768  1  0.31415000  0.02940000  0.78571000  0.5 0.0179064981
C  C769  1  0.32648000  0.05520000  0.84533000  0.5 -0.0024835825
C  C770  1  0.30105000  0.03520000  0.84047000  0.5 -0.2381296113
C  C771  1  0.33029000  0.07036000  0.87430000  0.5 -0.0515686083
C  C772  1  0.30865000  0.01781000  0.75539000  0.5 -0.1310892536
C  C773  1  0.16592000  0.90956000  0.86886000  0.5 0.1309228071
C  C774  1  0.32823000  0.97981000  0.90630000  0.5 0.159667984
C  C775  1  0.24901000  0.95437000  0.90098000  0.5 0.1392232751
C  C776  1  0.25683000  0.99019000  0.83165000  0.5 0.1496746509
C  C777  1  0.13689000  0.03215000  0.76100000  0.5 0.119761788
C  C778  1  0.12309000  0.04499000  0.95593000  0.5 0.1309228071
C  C779  1  0.38882000  0.08844000  0.80217000  0.5 0.1496746509
C  C780  1  0.26879000  0.12779000  0.95423000  0.5 0.1392232751
C  C781  1  0.22467000  0.00875000  0.75835000  0.5 -0.1904899965
C  C782  1  0.25666000  0.02603000  0.25122000  0.5 0.0391418594
C  C783  1  0.22704000  0.97621000  0.24919000  0.5 0.0391418594
C  C784  1  0.21875000  0.97687000  0.43724000  0.5 0.0094011247
C  C785  1  0.28212000  0.00827000  0.26345000  0.5 0.0491877035
C  C786  1  0.15148000  0.94860000  0.28490000  0.5 0.2574203967
C  C787  1  0.20247000  0.93115000  0.30151000  0.5 -0.2381296113
C  C788  1  0.14030000  0.94205000  0.31551000  0.5 -0.2204398138
C  C789  1  0.16104000  0.93249000  0.33875000  0.5 0.0028447168
C  C790  1  0.18401000  0.94710000  0.27962000  0.5 0.0094011247
C  C791  1  0.18955000  0.91970000  0.32944000  0.5 0.2396305551
C  C792  1  0.19629000  0.96706000  0.25647000  0.5 -0.1603615404
C  C793  1  0.17656000  0.95054000  0.39306000  0.5 -0.0024835825
C  C794  1  0.16572000  0.95887000  0.42289000  0.5 0.2396305551
C  C795  1  0.22986000  0.96613000  0.40805000  0.5 0.2396305551
C  C796  1  0.18708000  0.97244000  0.44448000  0.5 -0.2493187741
C  C797  1  0.20798000  0.95590000  0.38599000  0.5 -0.2304039062
C  C798  1  0.15484000  0.94158000  0.36975000  0.5 -0.08912768
C  C799  1  0.27435000  0.03742000  0.45307000  0.5 0.2396305551
C  C800  1  0.31909000  0.99195000  0.43534000  0.5 0.2396305551
C  C801  1  0.32335000  0.02345000  0.42730000  0.5 -0.0085061941
C  C802  1  0.30280000  0.04614000  0.43863000  0.5 -0.2304039062
C  C803  1  0.23597000  0.99646000  0.45749000  0.5 -0.1496200002
C  C804  1  0.26736000  0.00544000  0.45509000  0.5 0.0028447168
C  C805  1  0.29114000  0.98347000  0.45079000  0.5 -0.2381296113
C  C806  1  0.29395000  0.01902000  0.33124000  0.5 0.231273927
C  C807  1  0.34697000  0.03179000  0.31575000  0.5 -0.2304039062
C  C808  1  0.35634000  0.03487000  0.34741000  0.5 0.231273927
C  C809  1  0.31660000  0.02302000  0.30755000  0.5 0.0094011247
C  C810  1  0.33429000  0.02914000  0.37101000  0.5 -0.0085061941
C  C811  1  0.30344000  0.02181000  0.36270000  0.5 -0.2381296113
C  C812  1  0.34324000  0.03121000  0.40263000  0.5 -0.0515686083
C  C813  1  0.30914000  0.02191000  0.27551000  0.5 -0.1310892536
C  C814  1  0.23088000  0.88841000  0.33975000  0.5 0.1309228071
C  C815  1  0.33642000  0.94200000  0.43292000  0.5 0.1496746509
C  C816  1  0.27061000  0.95296000  0.37647000  0.5 0.1496746509
C  C817  1  0.24256000  0.01506000  0.34441000  0.5 0.159667984
C  C818  1  0.10334000  0.96131000  0.26711000  0.5 0.1392232751
C  C819  1  0.12429000  0.96533000  0.45527000  0.5 0.1496746509
C  C820  1  0.40589000  0.04831000  0.33430000  0.5 0.1496746509
C  C821  1  0.25889000  0.08761000  0.45971000  0.5 0.1680843371
C  C822  1  0.22983000  0.00858000  0.24291000  0.5 -0.1698022022
C  C823  1  0.74891000  0.95928000  0.23579000  0.5 0.0491877035
C  C824  1  0.75162000  0.02559000  0.24298000  0.5 0.0391418594
C  C825  1  0.72150000  0.97626000  0.24388000  0.5 0.0566759681
C  C826  1  0.69523000  0.03378000  0.42330000  0.5 0.0028447168
C  C827  1  0.77922000  0.00755000  0.23940000  0.5 0.0491877035
C  C828  1  0.65689000  0.99390000  0.28015000  0.5 0.2396305551
C  C829  1  0.65809000  0.93845000  0.28840000  0.5 -0.2304039062
C  C830  1  0.64656000  0.99775000  0.31130000  0.5 -0.2493187741
C  C831  1  0.64473000  0.97213000  0.33157000  0.5 -0.0024835825
C  C832  1  0.66861000  0.96449000  0.27167000  0.5 0.0094011247
C  C833  1  0.64568000  0.94192000  0.31889000  0.5 0.248811639
C  C834  1  0.69545000  0.95867000  0.25369000  0.5 -0.1995685358
C  C835  1  0.65692000  0.99858000  0.38290000  0.5 -0.0024835825
C  C836  1  0.65027000  0.99920000  0.41513000  0.5 0.2396305551
C  C837  1  0.69840000  0.03726000  0.39074000  0.5 0.2396305551
C  C838  1  0.66982000  0.01713000  0.43517000  0.5 -0.2381296113
C  C839  1  0.68051000  0.01797000  0.37113000  0.5 -0.2304039062
C  C840  1  0.64274000  0.97562000  0.36411000  0.5 -0.0592391016
C  C841  1  0.76612000  0.07628000  0.44006000  0.5 0.248811639
C  C842  1  0.79110000  0.02649000  0.40462000  0.5 0.248811639
C  C843  1  0.80290000  0.05689000  0.40074000  0.5 -0.0085061941
C  C844  1  0.79343000  0.08027000  0.42155000  0.5 -0.2204398138
C  C845  1  0.71719000  0.04706000  0.44382000  0.5 -0.1010006325
C  C846  1  0.74896000  0.04863000  0.43603000  0.5 -0.0024835825
C  C847  1  0.76283000  0.02313000  0.42097000  0.5 -0.2493187741
C  C848  1  0.78837000  0.02178000  0.30665000  0.5 0.231273927
C  C849  1  0.83718000  0.04599000  0.29116000  0.5 -0.2381296113
C  C850  1  0.84167000  0.05799000  0.32186000  0.5 0.248811639
C  C851  1  0.81050000  0.02879000  0.28322000  0.5 0.0179064981
C  C852  1  0.81837000  0.05271000  0.34440000  0.5 -0.0024835825
C  C853  1  0.79134000  0.03654000  0.33567000  0.5 -0.2381296113
C  C854  1  0.82116000  0.06534000  0.37475000  0.5 -0.0714419671
C  C855  1  0.80753000  0.01755000  0.25245000  0.5 -0.1402830219
C  C856  1  0.63874000  0.88986000  0.32525000  0.5 0.1496746509
C  C857  1  0.79490000  0.97464000  0.39447000  0.5 0.1680843371
C  C858  1  0.71739000  0.06550000  0.35002000  0.5 0.1392232751
C  C859  1  0.74714000  0.99246000  0.32339000  0.5 0.159667984
C  C860  1  0.64010000  0.04192000  0.26575000  0.5 0.1309228071
C  C861  1  0.61969000  0.98284000  0.45511000  0.5 0.1392232751
C  C862  1  0.88876000  0.07890000  0.30976000  0.5 0.159667984
C  C863  1  0.77009000  0.12429000  0.46178000  0.5 0.1309228071
C  C864  1  0.72326000  0.00913000  0.24572000  0.5 -0.1904899965
C  C865  1  0.72696000  0.74596000  0.00874000  0.5 -0.1904899965
C  C866  1  0.78217000  0.74264000  0.97374000  0.5 -0.1603615404
C  C867  1  0.72617000  0.75094000  0.97466000  0.5 0.0566759681
C  C868  1  0.70974000  0.93935000  0.03442000  0.5 -0.0085061941
C  C869  1  0.78408000  0.74940000  0.00575000  0.5 0.0566759681
C  C870  1  0.66013000  0.80412000  0.94938000  0.5 0.2574203967
C  C871  1  0.68145000  0.80218000  0.00168000  0.5 -0.2381296113
C  C872  1  0.64589000  0.83310000  0.95713000  0.5 -0.2304039062
C  C873  1  0.65271000  0.84794000  0.98532000  0.5 0.0094011247
C  C874  1  0.68022000  0.78992000  0.97131000  0.5 0.0094011247
C  C875  1  0.66801000  0.83133000  0.00908000  0.5 0.248811639
C  C876  1  0.70190000  0.76773000  0.96001000  0.5 -0.1995685358
C  C877  1  0.66752000  0.90096000  0.00194000  0.5 0.0094011247
C  C878  1  0.69979000  0.89746000  0.99679000  0.5 0.2102321981
C  C879  1  0.67793000  0.94734000  0.03419000  0.5 0.2396305551
C  C880  1  0.72045000  0.91523000  0.01506000  0.5 -0.2381296113
C  C881  1  0.65680000  0.92704000  0.01852000  0.5 -0.2493187741
C  C882  1  0.64604000  0.87981000  0.98891000  0.5 -0.0714419671
C  C883  1  0.78770000  0.95411000  0.06229000  0.5 0.2574203967
C  C884  1  0.77942000  0.89348000  0.08741000  0.5 0.2396305551
C  C885  1  0.80901000  0.90292000  0.07671000  0.5 -0.0085061941
C  C886  1  0.81366000  0.93409000  0.06790000  0.5 -0.2204398138
C  C887  1  0.73146000  0.95608000  0.05244000  0.5 -0.0787089185
C  C888  1  0.75763000  0.94140000  0.06545000  0.5 -0.0085061941
C  C889  1  0.75367000  0.91239000  0.07994000  0.5 -0.2381296113
C  C890  1  0.79282000  0.81510000  0.02992000  0.5 0.231273927
C  C891  1  0.84420000  0.79794000  0.04631000  0.5 -0.2381296113
C  C892  1  0.85056000  0.82754000  0.06010000  0.5 0.2396305551
C  C893  1  0.81548000  0.79137000  0.03195000  0.5 0.0179064981
C  C894  1  0.82739000  0.85071000  0.05887000  0.5 -0.0024835825
C  C895  1  0.79977000  0.84454000  0.04256000  0.5 -0.2304039062
C  C896  1  0.83276000  0.88094000  0.07096000  0.5 -0.0515686083
C  C897  1  0.81204000  0.76253000  0.01655000  0.5 -0.1496200002
C  C898  1  0.68229000  0.82860000  0.06021000  0.5 0.119761788
C  C899  1  0.74960000  0.85752000  0.11247000  0.5 0.159667984
C  C900  1  0.63950000  0.98006000  0.04991000  0.5 0.1680843371
C  C901  1  0.74483000  0.83092000  0.01456000  0.5 0.2013686944
C  C902  1  0.63893000  0.80366000  0.90080000  0.5 0.1309228071
C  C903  1  0.73843000  0.88019000  0.96482000  0.5 0.1392232751
C  C904  1  0.89922000  0.81326000  0.07528000  0.5 0.1496746509
C  C905  1  0.81824000  0.99458000  0.04726000  0.5 0.1392232751
C  C906  1  0.75351000  0.74377000  0.95728000  0.5 0.0298260257
C  C907  1  0.22434000  0.75427000  0.01356000  0.5 -0.1904899965
C  C908  1  0.27611000  0.73262000  0.97898000  0.5 -0.1603615404
C  C909  1  0.22385000  0.75499000  0.97882000  0.5 0.0566759681
C  C910  1  0.22029000  0.94613000  0.00443000  0.5 -0.0024835825
C  C911  1  0.27969000  0.74014000  0.01077000  0.5 0.0491877035
C  C912  1  0.15565000  0.80262000  0.94991000  0.5 0.248811639
C  C913  1  0.18800000  0.81413000  0.99481000  0.5 -0.2381296113
C  C914  1  0.14382000  0.83370000  0.95139000  0.5 -0.2304039062
C  C915  1  0.15602000  0.85515000  0.97279000  0.5 0.0028447168
C  C916  1  0.17969000  0.79382000  0.97062000  0.5 0.0094011247
C  C917  1  0.17512000  0.84425000  0.99717000  0.5 0.2396305551
C  C918  1  0.19807000  0.76765000  0.96301000  0.5 -0.1904899965
C  C919  1  0.17375000  0.90980000  0.97606000  0.5 0.0028447168
C  C920  1  0.20530000  0.90326000  0.96981000  0.5 0.2102321981
C  C921  1  0.18942000  0.95746000  0.00399000  0.5 0.231273927
C  C922  1  0.22824000  0.92073000  0.98548000  0.5 -0.2493187741
C  C923  1  0.16596000  0.93850000  0.98975000  0.5 -0.2493187741
C  C924  1  0.15053000  0.88745000  0.96917000  0.5 -0.0592391016
C  C925  1  0.29911000  0.95198000  0.03552000  0.5 0.2574203967
C  C926  1  0.28314000  0.89347000  0.06156000  0.5 0.2396305551
C  C927  1  0.31421000  0.89960000  0.05311000  0.5 -0.0085061941
C  C928  1  0.32252000  0.92972000  0.04354000  0.5 -0.2204398138
C  C929  1  0.24382000  0.96014000  0.02256000  0.5 -0.0787089185
C  C930  1  0.26771000  0.94234000  0.03637000  0.5 -0.0024835825
C  C931  1  0.25993000  0.91411000  0.05099000  0.5 -0.2381296113
C  C932  1  0.29803000  0.80733000  0.01513000  0.5 0.231273927
C  C933  1  0.34151000  0.78893000  0.04630000  0.5 -0.2304039062
C  C934  1  0.34942000  0.81998000  0.05498000  0.5 0.2396305551
C  C935  1  0.31540000  0.78235000  0.02781000  0.5 0.0179064981
C  C936  1  0.33005000  0.84448000  0.04493000  0.5 -0.0024835825
C  C937  1  0.30529000  0.83793000  0.02453000  0.5 -0.2381296113
C  C938  1  0.33660000  0.87564000  0.05328000  0.5 -0.0592391016
C  C939  1  0.30901000  0.75099000  0.02028000  0.5 -0.1496200002
C  C940  1  0.19599000  0.85242000  0.04511000  0.5 0.119761788
C  C941  1  0.24920000  0.86426000  0.08982000  0.5 0.1392232751
C  C942  1  0.15470000  0.99458000  0.01854000  0.5 0.1496746509
C  C943  1  0.26252000  0.82420000  0.97948000  0.5 0.159667984
C  C944  1  0.12432000  0.78957000  0.90926000  0.5 0.1392232751
C  C945  1  0.24074000  0.87812000  0.93955000  0.5 0.1392232751
C  C946  1  0.39144000  0.80440000  0.08305000  0.5 0.1496746509
C  C947  1  0.33450000  0.98942000  0.02373000  0.5 0.1496746509
C  C948  1  0.24915000  0.74138000  0.96189000  0.5 0.0298260257
C  C949  1  0.22824000  0.24009000  0.01334000  0.5 -0.180055684
C  C950  1  0.28225000  0.24747000  0.97859000  0.5 -0.1603615404
C  C951  1  0.22634000  0.24358000  0.98051000  0.5 0.0491877035
C  C952  1  0.21123000  0.44008000  0.01677000  0.5 -0.0024835825
C  C953  1  0.28337000  0.25094000  0.01140000  0.5 0.0491877035
C  C954  1  0.15435000  0.29041000  0.96151000  0.5 0.2574203967
C  C955  1  0.19498000  0.30198000  0.99910000  0.5 -0.2304039062
C  C956  1  0.14152000  0.32053000  0.96750000  0.5 -0.2204398138
C  C957  1  0.15645000  0.34159000  0.98746000  0.5 0.0028447168
C  C958  1  0.18211000  0.28169000  0.97691000  0.5 0.0028447168
C  C959  1  0.18176000  0.33128000  0.00569000  0.5 0.2396305551
C  C960  1  0.19861000  0.25492000  0.96709000  0.5 -0.1603615404
C  C961  1  0.16643000  0.39791000  0.99444000  0.5 -0.0024835825
C  C962  1  0.19635000  0.39818000  0.98091000  0.5 0.2013686944
C  C963  1  0.17977000  0.44471000  0.02481000  0.5 0.231273927
C  C964  1  0.21900000  0.41800000  0.99392000  0.5 -0.2381296113
C  C965  1  0.15747000  0.42252000  0.01401000  0.5 -0.2381296113
C  C966  1  0.14603000  0.37274000  0.98920000  0.5 -0.0592391016
C  C967  1  0.29249000  0.45790000  0.03509000  0.5 0.2396305551
C  C968  1  0.29028000  0.39569000  0.05664000  0.5 0.231273927
C  C969  1  0.31823000  0.40750000  0.04413000  0.5 -0.0085061941
C  C970  1  0.32004000  0.43927000  0.03653000  0.5 -0.2381296113
C  C971  1  0.23532000  0.45719000  0.03092000  0.5 -0.1085004615
C  C972  1  0.26361000  0.44283000  0.03900000  0.5 0.0094011247
C  C973  1  0.26277000  0.41267000  0.05154000  0.5 -0.2381296113
C  C974  1  0.30468000  0.31730000  0.00655000  0.5 0.231273927
C  C975  1  0.35002000  0.30091000  0.03652000  0.5 -0.2304039062
C  C976  1  0.35947000  0.33246000  0.04090000  0.5 0.231273927
C  C977  1  0.32211000  0.29325000  0.02110000  0.5 0.0094011247
C  C978  1  0.33965000  0.35614000  0.03008000  0.5 -0.0024835825
C  C979  1  0.31424000  0.34838000  0.01107000  0.5 -0.2304039062
C  C980  1  0.34379000  0.38750000  0.03915000  0.5 -0.0714419671
C  C981  1  0.31101000  0.26238000  0.02438000  0.5 -0.1496200002
C  C982  1  0.21360000  0.33902000  0.04731000  0.5 0.1392232751
C  C983  1  0.26655000  0.36036000  0.08818000  0.5 0.1392232751
C  C984  1  0.14363000  0.47261000  0.05140000  0.5 0.1794843933
C  C985  1  0.26357000  0.33219000  0.97635000  0.5 0.1496746509
C  C986  1  0.11655000  0.27834000  0.92646000  0.5 0.1309228071
C  C987  1  0.22777000  0.38364000  0.94084000  0.5 0.1309228071
C  C988  1  0.40317000  0.31886000  0.06742000  0.5 0.159667984
C  C989  1  0.31934000  0.50226000  0.02522000  0.5 0.159667984
C  C990  1  0.25394000  0.24365000  0.96223000  0.5 0.0298260257
C  C991  1  0.72237000  0.25518000  0.01412000  0.5 -0.1904899965
C  C992  1  0.77417000  0.23508000  0.97958000  0.5 -0.1698022022
C  C993  1  0.72168000  0.25705000  0.98121000  0.5 0.0491877035
C  C994  1  0.71997000  0.44817000  0.01040000  0.5 -0.0085061941
C  C995  1  0.77779000  0.24109000  0.01165000  0.5 0.0491877035
C  C996  1  0.65281000  0.30638000  0.95653000  0.5 0.248811639
C  C997  1  0.68714000  0.31619000  0.00038000  0.5 -0.2381296113
C  C998  1  0.64059000  0.33710000  0.96023000  0.5 -0.2304039062
C  C999  1  0.65365000  0.35771000  0.98185000  0.5 0.0094011247
C  C1000  1  0.67777000  0.29674000  0.97576000  0.5 0.0028447168
C  C1001  1  0.67443000  0.34619000  0.00448000  0.5 0.2396305551
C  C1002  1  0.69561000  0.27056000  0.96652000  0.5 -0.1698022022
C  C1003  1  0.67128000  0.41215000  0.98553000  0.5 0.0094011247
C  C1004  1  0.70220000  0.40607000  0.97618000  0.5 0.2102321981
C  C1005  1  0.68909000  0.45868000  0.01403000  0.5 0.231273927
C  C1006  1  0.72632000  0.42337000  0.99010000  0.5 -0.2381296113
C  C1007  1  0.66458000  0.43975000  0.00178000  0.5 -0.2493187741
C  C1008  1  0.64766000  0.39000000  0.97979000  0.5 -0.0787089185
C  C1009  1  0.80091000  0.45304000  0.03502000  0.5 0.2574203967
C  C1010  1  0.78603000  0.39484000  0.06246000  0.5 0.2396305551
C  C1011  1  0.81658000  0.40055000  0.05200000  0.5 -0.0085061941
C  C1012  1  0.82451000  0.43046000  0.04136000  0.5 -0.2204398138
C  C1013  1  0.74499000  0.46201000  0.02641000  0.5 -0.0592391016
C  C1014  1  0.76955000  0.44384000  0.03828000  0.5 0.0028447168
C  C1015  1  0.76242000  0.41563000  0.05325000  0.5 -0.2381296113
C  C1016  1  0.79692000  0.30831000  0.01630000  0.5 0.2396305551
C  C1017  1  0.84178000  0.28940000  0.04522000  0.5 -0.2304039062
C  C1018  1  0.85076000  0.32043000  0.05301000  0.5 0.2396305551
C  C1019  1  0.81448000  0.28306000  0.02827000  0.5 0.0094011247
C  C1020  1  0.83137000  0.34516000  0.04371000  0.5 -0.0085061941
C  C1021  1  0.80553000  0.33887000  0.02472000  0.5 -0.2304039062
C  C1022  1  0.83875000  0.37637000  0.05123000  0.5 -0.0515686083
C  C1023  1  0.80713000  0.25165000  0.02158000  0.5 -0.1603615404
C  C1024  1  0.69926000  0.35355000  0.05069000  0.5 0.119761788
C  C1025  1  0.75375000  0.36659000  0.09350000  0.5 0.1392232751
C  C1026  1  0.65560000  0.49437000  0.03406000  0.5 0.1680843371
C  C1027  1  0.75979000  0.32579000  0.98266000  0.5 0.1680843371
C  C1028  1  0.62008000  0.29532000  0.91640000  0.5 0.1392232751
C  C1029  1  0.73528000  0.38078000  0.94337000  0.5 0.119761788
C  C1030  1  0.89427000  0.30459000  0.07866000  0.5 0.1496746509
C  C1031  1  0.83582000  0.48990000  0.02026000  0.5 0.1496746509
C  C1032  1  0.74690000  0.24433000  0.96317000  0.5 0.0391418594
C  C1033  1  0.52101000  0.74417000  0.27311000  0.5 -0.180055684
C  C1034  1  0.48640000  0.74333000  0.21844000  0.5 -0.1698022022
C  C1035  1  0.48819000  0.74692000  0.27463000  0.5 0.0491877035
C  C1036  1  0.50730000  0.93214000  0.28933000  0.5 -0.0085061941
C  C1037  1  0.51905000  0.74654000  0.21687000  0.5 0.0491877035
C  C1038  1  0.45732000  0.78502000  0.34731000  0.5 0.248811639
C  C1039  1  0.50690000  0.79645000  0.32255000  0.5 -0.2381296113
C  C1040  1  0.45824000  0.81511000  0.36132000  0.5 -0.2304039062
C  C1041  1  0.48138000  0.83642000  0.35298000  0.5 0.0028447168
C  C1042  1  0.48046000  0.77726000  0.32515000  0.5 0.0094011247
C  C1043  1  0.50811000  0.82586000  0.33722000  0.5 0.2396305551
C  C1044  1  0.47260000  0.75494000  0.30230000  0.5 -0.180055684
C  C1045  1  0.48330000  0.89068000  0.33438000  0.5 0.0028447168
C  C1046  1  0.48020000  0.88340000  0.30240000  0.5 0.2229733296
C  C1047  1  0.50626000  0.94138000  0.32085000  0.5 0.2396305551
C  C1048  1  0.49332000  0.90390000  0.28038000  0.5 -0.2304039062
C  C1049  1  0.49356000  0.92037000  0.34319000  0.5 -0.2204398138
C  C1050  1  0.47634000  0.86846000  0.35754000  0.5 -0.0288818137
C  C1051  1  0.50181000  0.94020000  0.21674000  0.5 0.2396305551
C  C1052  1  0.56075000  0.91735000  0.19698000  0.5 0.248811639
C  C1053  1  0.53375000  0.91135000  0.17923000  0.5 -0.0085061941
C  C1054  1  0.50527000  0.92488000  0.18763000  0.5 -0.2304039062
C  C1055  1  0.52568000  0.94918000  0.26811000  0.5 -0.0787089185
C  C1056  1  0.52818000  0.94281000  0.23619000  0.5 0.0094011247
C  C1057  1  0.55761000  0.93450000  0.22502000  0.5 -0.2304039062
C  C1058  1  0.53410000  0.81496000  0.20658000  0.5 0.231273927
C  C1059  1  0.53992000  0.80041000  0.15211000  0.5 -0.2304039062
C  C1060  1  0.53972000  0.83230000  0.14281000  0.5 0.231273927
C  C1061  1  0.53571000  0.79150000  0.18336000  0.5 0.0094011247
C  C1062  1  0.53685000  0.85539000  0.16587000  0.5 -0.0183566475
C  C1063  1  0.53495000  0.84651000  0.19721000  0.5 -0.2304039062
C  C1064  1  0.53340000  0.88700000  0.15745000  0.5 -0.0592391016
C  C1065  1  0.53068000  0.75941000  0.18916000  0.5 -0.1496200002
C  C1066  1  0.55907000  0.83381000  0.32487000  0.5 0.119761788
C  C1067  1  0.61283000  0.91040000  0.20365000  0.5 0.1496746509
C  C1068  1  0.51750000  0.97794000  0.35749000  0.5 0.159667984
C  C1069  1  0.53181000  0.82854000  0.25775000  0.5 0.1680843371
C  C1070  1  0.41229000  0.77202000  0.37200000  0.5 0.1392232751
C  C1071  1  0.46004000  0.85159000  0.26483000  0.5 0.1496746509
C  C1072  1  0.54433000  0.82043000  0.09142000  0.5 0.1496746509
C  C1073  1  0.45012000  0.94906000  0.20940000  0.5 0.1496746509
C  C1074  1  0.47038000  0.74318000  0.24698000  0.5 0.0391418594
C  C1075  1  0.51921000  0.73646000  0.76465000  0.5 -0.180055684
C  C1076  1  0.48404000  0.74499000  0.71113000  0.5 -0.1698022022
C  C1077  1  0.48638000  0.73891000  0.76690000  0.5 0.0491877035
C  C1078  1  0.50696000  0.93237000  0.79646000  0.5 -0.0085061941
C  C1079  1  0.51668000  0.74921000  0.70989000  0.5 0.0491877035
C  C1080  1  0.46542000  0.77690000  0.84350000  0.5 0.2574203967
C  C1081  1  0.50373000  0.79391000  0.80550000  0.5 -0.2304039062
C  C1082  1  0.46980000  0.80572000  0.85954000  0.5 -0.2204398138
C  C1083  1  0.48866000  0.82920000  0.84696000  0.5 0.0094011247
C  C1084  1  0.48171000  0.77180000  0.81533000  0.5 0.0028447168
C  C1085  1  0.50835000  0.82213000  0.82166000  0.5 0.231273927
C  C1086  1  0.47254000  0.74717000  0.79552000  0.5 -0.1698022022
C  C1087  1  0.48960000  0.88626000  0.83960000  0.5 0.0028447168
C  C1088  1  0.47634000  0.88601000  0.80957000  0.5 0.2229733296
C  C1089  1  0.51395000  0.93697000  0.82822000  0.5 0.248811639
C  C1090  1  0.48697000  0.90802000  0.78774000  0.5 -0.2381296113
C  C1091  1  0.50551000  0.91298000  0.84972000  0.5 -0.2304039062
C  C1092  1  0.48724000  0.85981000  0.85898000  0.5 -0.0390877677
C  C1093  1  0.52232000  0.95635000  0.71595000  0.5 0.248811639
C  C1094  1  0.55101000  0.89703000  0.71419000  0.5 0.231273927
C  C1095  1  0.53817000  0.90969000  0.68678000  0.5 -0.0085061941
C  C1096  1  0.52708000  0.94035000  0.68717000  0.5 -0.2204398138
C  C1097  1  0.51898000  0.95193000  0.77305000  0.5 -0.08912768
C  C1098  1  0.52814000  0.94006000  0.74388000  0.5 -0.0183566475
C  C1099  1  0.54368000  0.91130000  0.74278000  0.5 -0.2493187741
C  C1100  1  0.50877000  0.81652000  0.69421000  0.5 0.231273927
C  C1101  1  0.53798000  0.80530000  0.64682000  0.5 -0.2304039062
C  C1102  1  0.54026000  0.83770000  0.63968000  0.5 0.2396305551
C  C1103  1  0.52393000  0.79467000  0.67452000  0.5 0.0094011247
C  C1104  1  0.52837000  0.85912000  0.66139000  0.5 -0.0024835825
C  C1105  1  0.51022000  0.84827000  0.68623000  0.5 -0.2304039062
C  C1106  1  0.53534000  0.89124000  0.65970000  0.5 -0.0515686083
C  C1107  1  0.52889000  0.76319000  0.68309000  0.5 -0.1402830219
C  C1108  1  0.55063000  0.83502000  0.79250000  0.5 0.1392232751
C  C1109  1  0.58446000  0.86240000  0.73622000  0.5 0.1392232751
C  C1110  1  0.53678000  0.96651000  0.86563000  0.5 0.1309228071
C  C1111  1  0.48166000  0.82705000  0.73873000  0.5 0.1392232751
C  C1112  1  0.42987000  0.75957000  0.87873000  0.5 0.1309228071
C  C1113  1  0.43828000  0.86806000  0.77742000  0.5 0.1496746509
C  C1114  1  0.56645000  0.82909000  0.59455000  0.5 0.159667984
C  C1115  1  0.50411000  0.99968000  0.69186000  0.5 0.1392232751
C  C1116  1  0.46801000  0.73981000  0.73938000  0.5 0.0298260257
C  C1117  1  0.52081000  0.24631000  0.77554000  0.5 -0.180055684
C  C1118  1  0.48455000  0.23982000  0.72225000  0.5 -0.1603615404
C  C1119  1  0.48623000  0.24969000  0.77766000  0.5 0.0566759681
C  C1120  1  0.51166000  0.43198000  0.78828000  0.5 -0.0085061941
C  C1121  1  0.51688000  0.24575000  0.71972000  0.5 0.0491877035
C  C1122  1  0.45951000  0.28921000  0.85141000  0.5 0.248811639
C  C1123  1  0.50838000  0.29913000  0.82475000  0.5 -0.2381296113
C  C1124  1  0.46196000  0.31916000  0.86552000  0.5 -0.2304039062
C  C1125  1  0.48528000  0.33983000  0.85610000  0.5 0.0028447168
C  C1126  1  0.48138000  0.28091000  0.82819000  0.5 0.0094011247
C  C1127  1  0.51105000  0.32847000  0.83933000  0.5 0.2396305551
C  C1128  1  0.47179000  0.25914000  0.80550000  0.5 -0.2204398138
C  C1129  1  0.48769000  0.39340000  0.83592000  0.5 -0.0085061941
C  C1130  1  0.48263000  0.38531000  0.80439000  0.5 0.231273927
C  C1131  1  0.51269000  0.44227000  0.81952000  0.5 0.2396305551
C  C1132  1  0.49603000  0.40413000  0.78107000  0.5 -0.2381296113
C  C1133  1  0.49991000  0.42276000  0.84317000  0.5 -0.2304039062
C  C1134  1  0.48111000  0.37209000  0.86007000  0.5 -0.0390877677
C  C1135  1  0.50394000  0.43608000  0.71556000  0.5 0.2396305551
C  C1136  1  0.56336000  0.41786000  0.69260000  0.5 0.248811639
C  C1137  1  0.53604000  0.40950000  0.67645000  0.5 -0.0085061941
C  C1138  1  0.50697000  0.42038000  0.68662000  0.5 -0.2304039062
C  C1139  1  0.53000000  0.44729000  0.76572000  0.5 -0.08912768
C  C1140  1  0.53099000  0.44054000  0.73372000  0.5 -0.0024835825
C  C1141  1  0.56034000  0.43478000  0.72081000  0.5 -0.2304039062
C  C1142  1  0.53170000  0.31436000  0.70700000  0.5 0.231273927
C  C1143  1  0.53766000  0.29770000  0.65315000  0.5 -0.2204398138
C  C1144  1  0.53908000  0.32918000  0.64274000  0.5 0.2396305551
C  C1145  1  0.53292000  0.29004000  0.68462000  0.5 0.0094011247
C  C1146  1  0.53728000  0.35318000  0.66496000  0.5 -0.0085061941
C  C1147  1  0.53463000  0.34550000  0.69662000  0.5 -0.2304039062
C  C1148  1  0.53676000  0.38464000  0.65534000  0.5 -0.0515686083
C  C1149  1  0.52635000  0.25839000  0.69113000  0.5 -0.1496200002
C  C1150  1  0.56123000  0.33556000  0.82361000  0.5 0.119761788
C  C1151  1  0.61608000  0.41473000  0.69667000  0.5 0.1392232751
C  C1152  1  0.52860000  0.47885000  0.85440000  0.5 0.1496746509
C  C1153  1  0.52745000  0.32983000  0.75753000  0.5 0.1680843371
C  C1154  1  0.41548000  0.27716000  0.87825000  0.5 0.1309228071
C  C1155  1  0.45816000  0.35401000  0.76902000  0.5 0.1496746509
C  C1156  1  0.54213000  0.31517000  0.59176000  0.5 0.1496746509
C  C1157  1  0.45168000  0.44259000  0.71001000  0.5 0.1496746509
C  C1158  1  0.46804000  0.24273000  0.75064000  0.5 0.0391418594
C  C1159  1  0.52023000  0.23606000  0.27129000  0.5 -0.180055684
C  C1160  1  0.48524000  0.24388000  0.21761000  0.5 -0.1698022022
C  C1161  1  0.48742000  0.23894000  0.27352000  0.5 0.0491877035
C  C1162  1  0.50663000  0.43322000  0.29417000  0.5 -0.0085061941
C  C1163  1  0.51794000  0.24790000  0.21635000  0.5 0.0491877035
C  C1164  1  0.46818000  0.27922000  0.34934000  0.5 0.2574203967
C  C1165  1  0.50483000  0.29535000  0.30936000  0.5 -0.2304039062
C  C1166  1  0.47212000  0.30894000  0.36374000  0.5 -0.2204398138
C  C1167  1  0.49002000  0.33221000  0.34946000  0.5 0.0094011247
C  C1168  1  0.48343000  0.27338000  0.32074000  0.5 0.0094011247
C  C1169  1  0.50939000  0.32429000  0.32410000  0.5 0.231273927
C  C1170  1  0.47399000  0.24794000  0.30210000  0.5 -0.180055684
C  C1171  1  0.48994000  0.38885000  0.33939000  0.5 0.0094011247
C  C1172  1  0.47689000  0.38691000  0.30929000  0.5 0.2229733296
C  C1173  1  0.51322000  0.43951000  0.32572000  0.5 0.248811639
C  C1174  1  0.48725000  0.40807000  0.28650000  0.5 -0.2381296113
C  C1175  1  0.50511000  0.41644000  0.34838000  0.5 -0.2304039062
C  C1176  1  0.48805000  0.36330000  0.35999000  0.5 -0.0390877677
C  C1177  1  0.52010000  0.45481000  0.21260000  0.5 0.2574203967
C  C1178  1  0.55027000  0.39613000  0.21249000  0.5 0.231273927
C  C1179  1  0.53638000  0.40740000  0.18495000  0.5 -0.0024835825
C  C1180  1  0.52454000  0.43780000  0.18433000  0.5 -0.2204398138
C  C1181  1  0.51798000  0.45227000  0.26996000  0.5 -0.08912768
C  C1182  1  0.52712000  0.43977000  0.24102000  0.5 -0.0183566475
C  C1183  1  0.54355000  0.41148000  0.24065000  0.5 -0.2493187741
C  C1184  1  0.50912000  0.31435000  0.19741000  0.5 0.231273927
C  C1185  1  0.53853000  0.30140000  0.15057000  0.5 -0.2304039062
C  C1186  1  0.53971000  0.33344000  0.14164000  0.5 0.2396305551
C  C1187  1  0.52476000  0.29186000  0.17884000  0.5 0.0094011247
C  C1188  1  0.52715000  0.35562000  0.16214000  0.5 -0.0085061941
C  C1189  1  0.50954000  0.34564000  0.18767000  0.5 -0.2304039062
C  C1190  1  0.53327000  0.38777000  0.15878000  0.5 -0.0515686083
C  C1191  1  0.53049000  0.26103000  0.18919000  0.5 -0.1496200002
C  C1192  1  0.55083000  0.33644000  0.29332000  0.5 0.1392232751
C  C1193  1  0.58500000  0.36299000  0.23499000  0.5 0.1392232751
C  C1194  1  0.53499000  0.47159000  0.36162000  0.5 0.1309228071
C  C1195  1  0.48214000  0.32653000  0.24153000  0.5 0.1496746509
C  C1196  1  0.43563000  0.26204000  0.38742000  0.5 0.1392232751
C  C1197  1  0.43852000  0.36774000  0.27824000  0.5 0.159667984
C  C1198  1  0.56614000  0.32338000  0.09695000  0.5 0.1392232751
C  C1199  1  0.50009000  0.49683000  0.18747000  0.5 0.1392232751
C  C1200  1  0.46898000  0.23965000  0.24596000  0.5 0.0298260257
C  C1201  1  0.02283000  0.73878000  0.27045000  0.5 -0.180055684
C  C1202  1  0.98789000  0.74564000  0.21654000  0.5 -0.1603615404
C  C1203  1  0.99005000  0.74146000  0.27249000  0.5 0.0491877035
C  C1204  1  0.00752000  0.93618000  0.29346000  0.5 -0.0085061941
C  C1205  1  0.02055000  0.74975000  0.21531000  0.5 0.0491877035
C  C1206  1  0.96908000  0.78227000  0.34752000  0.5 0.2574203967
C  C1207  1  0.00720000  0.79806000  0.30878000  0.5 -0.2304039062
C  C1208  1  0.97307000  0.81183000  0.36223000  0.5 -0.2204398138
C  C1209  1  0.99153000  0.83500000  0.34854000  0.5 0.0094011247
C  C1210  1  0.98534000  0.77621000  0.31955000  0.5 0.0028447168
C  C1211  1  0.01132000  0.82711000  0.32356000  0.5 0.231273927
C  C1212  1  0.97626000  0.75074000  0.30078000  0.5 -0.1496200002
C  C1213  1  0.99126000  0.89166000  0.33861000  0.5 0.0028447168
C  C1214  1  0.97797000  0.88979000  0.30866000  0.5 0.2229733296
C  C1215  1  0.01442000  0.94235000  0.32496000  0.5 0.248811639
C  C1216  1  0.98808000  0.91104000  0.28585000  0.5 -0.2381296113
C  C1217  1  0.00654000  0.91916000  0.34752000  0.5 -0.2304039062
C  C1218  1  0.98953000  0.86607000  0.35915000  0.5 -0.0390877677
C  C1219  1  0.02158000  0.95701000  0.21200000  0.5 0.2574203967
C  C1220  1  0.05207000  0.89856000  0.21252000  0.5 0.231273927
C  C1221  1  0.03854000  0.90958000  0.18474000  0.5 -0.0085061941
C  C1222  1  0.02644000  0.93986000  0.18392000  0.5 -0.2204398138
C  C1223  1  0.01894000  0.95505000  0.26922000  0.5 -0.08912768
C  C1224  1  0.02830000  0.94223000  0.24053000  0.5 -0.0183566475
C  C1225  1  0.04475000  0.91397000  0.24053000  0.5 -0.2493187741
C  C1226  1  0.01171000  0.81626000  0.19700000  0.5 0.231273927
C  C1227  1  0.04054000  0.80343000  0.14979000  0.5 -0.2304039062
C  C1228  1  0.04188000  0.83549000  0.14104000  0.5 0.2396305551
C  C1229  1  0.02712000  0.79384000  0.17815000  0.5 0.0094011247
C  C1230  1  0.02974000  0.85765000  0.16185000  0.5 -0.0085061941
C  C1231  1  0.01215000  0.84758000  0.18741000  0.5 -0.2304039062
C  C1232  1  0.03587000  0.88982000  0.15857000  0.5 -0.0515686083
C  C1233  1  0.03288000  0.76294000  0.18816000  0.5 -0.1402830219
C  C1234  1  0.05310000  0.83959000  0.29345000  0.5 0.1392232751
C  C1235  1  0.08632000  0.86558000  0.23584000  0.5 0.1392232751
C  C1236  1  0.03632000  0.97419000  0.36099000  0.5 0.1309228071
C  C1237  1  0.98529000  0.82835000  0.24152000  0.5 0.1496746509
C  C1238  1  0.93414000  0.76587000  0.38379000  0.5 0.1309228071
C  C1239  1  0.94020000  0.86970000  0.27743000  0.5 0.159667984
C  C1240  1  0.06760000  0.82524000  0.09597000  0.5 0.1392232751
C  C1241  1  0.00176000  0.99864000  0.18627000  0.5 0.1392232751
C  C1242  1  0.97177000  0.74147000  0.24486000  0.5 0.0298260257
C  C1243  1  0.02185000  0.74899000  0.77338000  0.5 -0.180055684
C  C1244  1  0.98718000  0.74540000  0.71903000  0.5 -0.1603615404
C  C1245  1  0.98900000  0.75202000  0.77498000  0.5 0.0566759681
C  C1246  1  0.00707000  0.93726000  0.78564000  0.5 -0.0183566475
C  C1247  1  0.01967000  0.74945000  0.71725000  0.5 0.0391418594
C  C1248  1  0.95890000  0.79067000  0.84758000  0.5 0.248811639
C  C1249  1  0.00841000  0.80169000  0.82256000  0.5 -0.2381296113
C  C1250  1  0.95970000  0.82109000  0.86087000  0.5 -0.2304039062
C  C1251  1  0.98278000  0.84228000  0.85202000  0.5 0.0028447168
C  C1252  1  0.98198000  0.78256000  0.82549000  0.5 0.0094011247
C  C1253  1  0.00958000  0.83137000  0.83667000  0.5 0.2396305551
C  C1254  1  0.97394000  0.76001000  0.80294000  0.5 -0.1698022022
C  C1255  1  0.98449000  0.89610000  0.83182000  0.5 -0.0024835825
C  C1256  1  0.98173000  0.88791000  0.80001000  0.5 0.231273927
C  C1257  1  0.00555000  0.94733000  0.81688000  0.5 0.248811639
C  C1258  1  0.99415000  0.90830000  0.77747000  0.5 -0.2381296113
C  C1259  1  0.99379000  0.92637000  0.83981000  0.5 -0.2204398138
C  C1260  1  0.97764000  0.87444000  0.85560000  0.5 -0.0288818137
C  C1261  1  0.00042000  0.94399000  0.71292000  0.5 0.2396305551
C  C1262  1  0.05908000  0.92012000  0.69355000  0.5 0.2396305551
C  C1263  1  0.03196000  0.91386000  0.67611000  0.5 -0.0085061941
C  C1264  1  0.00360000  0.92777000  0.68428000  0.5 -0.2381296113
C  C1265  1  0.02450000  0.95453000  0.76381000  0.5 -0.0714419671
C  C1266  1  0.02694000  0.94717000  0.73207000  0.5 -0.0024835825
C  C1267  1  0.05623000  0.93806000  0.72112000  0.5 -0.2381296113
C  C1268  1  0.03419000  0.81804000  0.70565000  0.5 0.231273927
C  C1269  1  0.03891000  0.80247000  0.65139000  0.5 -0.2204398138
C  C1270  1  0.03832000  0.83412000  0.64145000  0.5 0.2396305551
C  C1271  1  0.03542000  0.79415000  0.68285000  0.5 0.0094011247
C  C1272  1  0.03557000  0.85766000  0.66405000  0.5 -0.0183566475
C  C1273  1  0.03444000  0.84942000  0.69564000  0.5 -0.2304039062
C  C1274  1  0.03132000  0.88898000  0.65499000  0.5 -0.0592391016
C  C1275  1  0.03073000  0.76213000  0.68923000  0.5 -0.1603615404
C  C1276  1  0.06055000  0.83907000  0.82429000  0.5 0.119761788
C  C1277  1  0.11111000  0.91269000  0.70022000  0.5 0.159667984
C  C1278  1  0.01436000  0.98571000  0.85231000  0.5 0.1496746509
C  C1279  1  0.03395000  0.83250000  0.75659000  0.5 0.1680843371
C  C1280  1  0.91404000  0.77794000  0.87270000  0.5 0.1309228071
C  C1281  1  0.96273000  0.85448000  0.76323000  0.5 0.1496746509
C  C1282  1  0.04237000  0.82112000  0.59028000  0.5 0.1496746509
C  C1283  1  0.94863000  0.95251000  0.70585000  0.5 0.159667984
C  C1284  1  0.97089000  0.74673000  0.74755000  0.5 0.0391418594
C  C1285  1  0.01945000  0.23652000  0.77002000  0.5 -0.180055684
C  C1286  1  0.98449000  0.25026000  0.71742000  0.5 -0.1698022022
C  C1287  1  0.98669000  0.24042000  0.77256000  0.5 0.0491877035
C  C1288  1  0.00224000  0.42623000  0.78769000  0.5 -0.0183566475
C  C1289  1  0.01734000  0.25095000  0.71560000  0.5 0.0491877035
C  C1290  1  0.96114000  0.27745000  0.84775000  0.5 0.2574203967
C  C1291  1  0.00617000  0.29150000  0.81644000  0.5 -0.2381296113
C  C1292  1  0.96252000  0.30750000  0.86184000  0.5 -0.2204398138
C  C1293  1  0.98351000  0.32989000  0.85096000  0.5 0.0028447168
C  C1294  1  0.98149000  0.27088000  0.82269000  0.5 0.0094011247
C  C1295  1  0.00814000  0.32075000  0.83128000  0.5 0.2396305551
C  C1296  1  0.97282000  0.24735000  0.80145000  0.5 -0.180055684
C  C1297  1  0.98232000  0.38470000  0.83468000  0.5 -0.0085061941
C  C1298  1  0.97416000  0.37882000  0.80340000  0.5 0.231273927
C  C1299  1  0.00589000  0.43453000  0.81935000  0.5 0.2574203967
C  C1300  1  0.98601000  0.39878000  0.78018000  0.5 -0.2381296113
C  C1301  1  0.99536000  0.41344000  0.84274000  0.5 -0.2204398138
C  C1302  1  0.97848000  0.36157000  0.85762000  0.5 -0.0288818137
C  C1303  1  0.99082000  0.43185000  0.71549000  0.5 0.248811639
C  C1304  1  0.05028000  0.42887000  0.68649000  0.5 0.2396305551
C  C1305  1  0.02442000  0.41411000  0.67278000  0.5 -0.0024835825
C  C1306  1  0.99463000  0.41811000  0.68570000  0.5 -0.2381296113
C  C1307  1  0.01876000  0.44324000  0.76487000  0.5 -0.08912768
C  C1308  1  0.01791000  0.43990000  0.73227000  0.5 -0.0085061941
C  C1309  1  0.04633000  0.44238000  0.71642000  0.5 -0.2304039062
C  C1310  1  0.02016000  0.31832000  0.70109000  0.5 0.231273927
C  C1311  1  0.03232000  0.30281000  0.64793000  0.5 -0.2304039062
C  C1312  1  0.03192000  0.33446000  0.63783000  0.5 0.2396305551
C  C1313  1  0.02640000  0.29458000  0.67903000  0.5 0.0179064981
C  C1314  1  0.02602000  0.35796000  0.65996000  0.5 -0.0183566475
C  C1315  1  0.01979000  0.34953000  0.69094000  0.5 -0.2381296113
C  C1316  1  0.02967000  0.38963000  0.65179000  0.5 -0.0592391016
C  C1317  1  0.02969000  0.26301000  0.68790000  0.5 -0.1310892536
C  C1318  1  0.05622000  0.33122000  0.81139000  0.5 0.1496746509
C  C1319  1  0.10221000  0.43938000  0.68536000  0.5 0.1496746509
C  C1320  1  0.02424000  0.46910000  0.85504000  0.5 0.119761788
C  C1321  1  0.01352000  0.33250000  0.75181000  0.5 0.1794843933
C  C1322  1  0.92076000  0.26202000  0.87832000  0.5 0.1309228071
C  C1323  1  0.94504000  0.35091000  0.76879000  0.5 0.1392232751
C  C1324  1  0.04279000  0.32162000  0.58762000  0.5 0.1496746509
C  C1325  1  0.93800000  0.42962000  0.71312000  0.5 0.1392232751
C  C1326  1  0.96824000  0.24421000  0.74528000  0.5 0.0298260257
C  C1327  1  0.02217000  0.24878000  0.27596000  0.5 -0.180055684
C  C1328  1  0.98789000  0.24244000  0.22127000  0.5 -0.1698022022
C  C1329  1  0.98932000  0.25138000  0.27809000  0.5 0.0491877035
C  C1330  1  0.01030000  0.43568000  0.28857000  0.5 -0.0183566475
C  C1331  1  0.01998000  0.24830000  0.21960000  0.5 0.0391418594
C  C1332  1  0.95996000  0.29009000  0.35096000  0.5 0.248811639
C  C1333  1  0.00955000  0.30077000  0.32594000  0.5 -0.2381296113
C  C1334  1  0.96102000  0.32047000  0.36432000  0.5 -0.2304039062
C  C1335  1  0.98426000  0.34148000  0.35544000  0.5 0.0094011247
C  C1336  1  0.98294000  0.28188000  0.32881000  0.5 0.0094011247
C  C1337  1  0.01103000  0.33031000  0.34024000  0.5 0.2396305551
C  C1338  1  0.97454000  0.25964000  0.30612000  0.5 -0.1698022022
C  C1339  1  0.98667000  0.39507000  0.33474000  0.5 -0.0085061941
C  C1340  1  0.98421000  0.38670000  0.30294000  0.5 0.231273927
C  C1341  1  0.00940000  0.44559000  0.31989000  0.5 0.2396305551
C  C1342  1  0.99697000  0.40689000  0.28040000  0.5 -0.2381296113
C  C1343  1  0.99667000  0.42510000  0.34271000  0.5 -0.2304039062
C  C1344  1  0.97924000  0.37368000  0.35862000  0.5 -0.0288818137
C  C1345  1  0.00184000  0.44342000  0.21623000  0.5 0.2396305551
C  C1346  1  0.05959000  0.41899000  0.19495000  0.5 0.248811639
C  C1347  1  0.03186000  0.41312000  0.17834000  0.5 -0.0024835825
C  C1348  1  0.00398000  0.42749000  0.18733000  0.5 -0.2304039062
C  C1349  1  0.02755000  0.45290000  0.26654000  0.5 -0.0787089185
C  C1350  1  0.02895000  0.44601000  0.23465000  0.5 0.0028447168
C  C1351  1  0.05780000  0.43676000  0.22270000  0.5 -0.2304039062
C  C1352  1  0.03454000  0.31727000  0.20795000  0.5 0.231273927
C  C1353  1  0.03750000  0.30168000  0.15353000  0.5 -0.2204398138
C  C1354  1  0.03619000  0.33333333  0.14354000  0.5 0.2396305551
C  C1355  1  0.03518000  0.29337000  0.18512000  0.5 0.0094011247
C  C1356  1  0.03474000  0.35687000  0.16624000  0.5 -0.0183566475
C  C1357  1  0.03493000  0.34865000  0.19790000  0.5 -0.2304039062
C  C1358  1  0.03016000  0.38819000  0.15732000  0.5 -0.0515686083
C  C1359  1  0.03028000  0.26136000  0.19146000  0.5 -0.1496200002
C  C1360  1  0.06199000  0.33756000  0.32764000  0.5 0.119761788
C  C1361  1  0.11174000  0.41116000  0.19981000  0.5 0.1496746509
C  C1362  1  0.02112000  0.48279000  0.35574000  0.5 0.159667984
C  C1363  1  0.03447000  0.33170000  0.25901000  0.5 0.1680843371
C  C1364  1  0.91477000  0.27783000  0.37574000  0.5 0.119761788
C  C1365  1  0.96585000  0.35288000  0.26615000  0.5 0.1496746509
C  C1366  1  0.03624000  0.32011000  0.09222000  0.5 0.1496746509
C  C1367  1  0.95000000  0.45274000  0.21071000  0.5 0.159667984
C  C1368  1  0.97086000  0.24499000  0.25127000  0.5 0.0391418594
O  O1  1  0.75277000  0.73913000  0.24379000  1.0 -1.0113717865
O  O2  1  0.77390000  0.75687000  0.17830000  1.0 -0.5128289611
O  O3  1  0.73252000  0.72190000  0.17663000  1.0 -0.6014253988
O  O4  1  0.73422000  0.75745000  0.30980000  1.0 -0.5200399687
O  O5  1  0.76826000  0.71901000  0.31051000  1.0 -0.5200399687
O  O6  1  0.81984000  0.75763000  0.22734000  1.0 -0.5200399687
O  O7  1  0.81927000  0.71922000  0.26534000  1.0 -0.6014253988
O  O8  1  0.68581000  0.72098000  0.22574000  1.0 -0.5284270491
O  O9  1  0.68646000  0.75668000  0.26274000  1.0 -0.5200399687
O  O10  1  0.77155000  0.80546000  0.22443000  1.0 -0.5284270491
O  O11  1  0.73336000  0.80641000  0.26269000  1.0 -0.6014253988
O  O12  1  0.76983000  0.67269000  0.26139000  1.0 -0.5200399687
O  O13  1  0.73462000  0.67252000  0.22390000  1.0 -0.5284270491
O  O14  1  0.75137000  0.74093000  0.73968000  1.0 -1.0113717865
O  O15  1  0.76932000  0.75815000  0.80600000  1.0 -0.5200399687
O  O16  1  0.73035000  0.72053000  0.80576000  1.0 -0.6014253988
O  O17  1  0.77023000  0.72300000  0.67355000  1.0 -0.5200399687
O  O18  1  0.73345000  0.75902000  0.67359000  1.0 -0.5284270491
O  O19  1  0.76977000  0.80721000  0.75933000  1.0 -0.5284270491
O  O20  1  0.73248000  0.80841000  0.72026000  1.0 -0.6088808925
O  O21  1  0.73151000  0.67426000  0.75563000  1.0 -0.5284270491
O  O22  1  0.76966000  0.67429000  0.72118000  1.0 -0.5284270491
O  O23  1  0.81763000  0.75968000  0.75940000  1.0 -0.5200399687
O  O24  1  0.81930000  0.72158000  0.72120000  1.0 -0.5926348419
O  O25  1  0.68488000  0.75963000  0.72073000  1.0 -0.5200399687
O  O26  1  0.68402000  0.72239000  0.75603000  1.0 -0.5200399687
O  O27  1  0.75197000  0.24101000  0.24588000  1.0 -1.0017083318
O  O28  1  0.77061000  0.25822000  0.31190000  1.0 -0.5284270491
O  O29  1  0.73326000  0.22277000  0.31237000  1.0 -0.5284270491
O  O30  1  0.76906000  0.22372000  0.17884000  1.0 -0.5284270491
O  O31  1  0.73313000  0.26057000  0.18025000  1.0 -0.5284270491
O  O32  1  0.77055000  0.30720000  0.26488000  1.0 -0.5284270491
O  O33  1  0.73369000  0.30799000  0.22906000  1.0 -0.5284270491
O  O34  1  0.73367000  0.17434000  0.26373000  1.0 -0.5284270491
O  O35  1  0.76969000  0.17459000  0.22692000  1.0 -0.5284270491
O  O36  1  0.81826000  0.25954000  0.26433000  1.0 -0.5200399687
O  O37  1  0.81915000  0.22190000  0.22558000  1.0 -0.6014253988
O  O38  1  0.68567000  0.25994000  0.22855000  1.0 -0.5284270491
O  O39  1  0.68530000  0.22243000  0.26375000  1.0 -0.5284270491
O  O40  1  0.75222000  0.24396000  0.74322000  1.0 -1.0017083318
O  O41  1  0.77196000  0.26256000  0.67761000  1.0 -0.5284270491
O  O42  1  0.73434000  0.22751000  0.67607000  1.0 -0.5284270491
O  O43  1  0.73359000  0.26185000  0.80999000  1.0 -0.5284270491
O  O44  1  0.77051000  0.22238000  0.81025000  1.0 -0.6014253988
O  O45  1  0.81924000  0.26311000  0.72634000  1.0 -0.5284270491
O  O46  1  0.81894000  0.22600000  0.76186000  1.0 -0.5284270491
O  O47  1  0.68520000  0.22649000  0.72370000  1.0 -0.5284270491
O  O48  1  0.68569000  0.26103000  0.76188000  1.0 -0.5284270491
O  O49  1  0.76984000  0.31018000  0.72520000  1.0 -0.5284270491
O  O50  1  0.73309000  0.30985000  0.76129000  1.0 -0.5284270491
O  O51  1  0.77147000  0.17807000  0.75843000  1.0 -0.5284270491
O  O52  1  0.73468000  0.17806000  0.72225000  1.0 -0.5390024335
O  O53  1  0.25403000  0.74201000  0.24493000  1.0 -1.0017083318
O  O54  1  0.27319000  0.75921000  0.31088000  1.0 -0.5200399687
O  O55  1  0.23546000  0.72415000  0.31130000  1.0 -0.5284270491
O  O56  1  0.27190000  0.72450000  0.17827000  1.0 -0.5284270491
O  O57  1  0.23606000  0.76158000  0.17934000  1.0 -0.5284270491
O  O58  1  0.27306000  0.80829000  0.26383000  1.0 -0.5284270491
O  O59  1  0.23622000  0.80962000  0.22806000  1.0 -0.5284270491
O  O60  1  0.23509000  0.67547000  0.26298000  1.0 -0.5284270491
O  O61  1  0.27131000  0.67483000  0.22640000  1.0 -0.5284270491
O  O62  1  0.32021000  0.75984000  0.26227000  1.0 -0.5200399687
O  O63  1  0.32036000  0.72266000  0.22668000  1.0 -0.5284270491
O  O64  1  0.18822000  0.76155000  0.22732000  1.0 -0.5284270491
O  O65  1  0.18754000  0.72441000  0.26296000  1.0 -0.5284270491
O  O66  1  0.25303000  0.73978000  0.74238000  1.0 -1.0113717865
O  O67  1  0.27184000  0.75806000  0.67670000  1.0 -0.5200399687
O  O68  1  0.23424000  0.72305000  0.67507000  1.0 -0.5200399687
O  O69  1  0.23531000  0.75652000  0.80955000  1.0 -0.5200399687
O  O70  1  0.27301000  0.71794000  0.80928000  1.0 -0.5926348419
O  O71  1  0.31937000  0.75799000  0.72395000  1.0 -0.5284270491
O  O72  1  0.31972000  0.72075000  0.75935000  1.0 -0.5200399687
O  O73  1  0.18590000  0.72360000  0.72324000  1.0 -0.5284270491
O  O74  1  0.18723000  0.75755000  0.76192000  1.0 -0.5284270491
O  O75  1  0.27153000  0.80610000  0.72359000  1.0 -0.5200399687
O  O76  1  0.23490000  0.80632000  0.76343000  1.0 -0.6014253988
O  O77  1  0.27107000  0.67381000  0.75799000  1.0 -0.5284270491
O  O78  1  0.23359000  0.67379000  0.72254000  1.0 -0.5390024335
O  O79  1  0.25248000  0.24254000  0.24601000  1.0 -1.0017083318
O  O80  1  0.27129000  0.26076000  0.17978000  1.0 -0.5284270491
O  O81  1  0.23487000  0.22443000  0.17891000  1.0 -0.5284270491
O  O82  1  0.23447000  0.26186000  0.31250000  1.0 -0.5284270491
O  O83  1  0.26944000  0.22423000  0.31322000  1.0 -0.5284270491
O  O84  1  0.31890000  0.25998000  0.22861000  1.0 -0.5390024335
O  O85  1  0.31814000  0.22373000  0.26535000  1.0 -0.5390024335
O  O86  1  0.18624000  0.22529000  0.22682000  1.0 -0.5284270491
O  O87  1  0.18696000  0.26094000  0.26410000  1.0 -0.5284270491
O  O88  1  0.27093000  0.30936000  0.22713000  1.0 -0.5200399687
O  O89  1  0.23456000  0.30918000  0.26347000  1.0 -0.5284270491
O  O90  1  0.26932000  0.17629000  0.26496000  1.0 -0.5284270491
O  O91  1  0.23418000  0.17541000  0.22732000  1.0 -0.5284270491
O  O92  1  0.25206000  0.24063000  0.74597000  1.0 -1.0017083318
O  O93  1  0.27070000  0.25867000  0.81251000  1.0 -0.5284270491
O  O94  1  0.23268000  0.22405000  0.81286000  1.0 -0.5284270491
O  O95  1  0.27063000  0.22259000  0.67924000  1.0 -0.5284270491
O  O96  1  0.23428000  0.25913000  0.67953000  1.0 -0.5284270491
O  O97  1  0.27061000  0.30628000  0.76425000  1.0 -0.5390024335
O  O98  1  0.23393000  0.30708000  0.72805000  1.0 -0.5390024335
O  O99  1  0.23366000  0.17519000  0.76530000  1.0 -0.5284270491
O  O100  1  0.27020000  0.17403000  0.72889000  1.0 -0.5390024335
O  O101  1  0.31848000  0.25852000  0.76417000  1.0 -0.5284270491
O  O102  1  0.31915000  0.22201000  0.72797000  1.0 -0.5284270491
O  O103  1  0.18575000  0.25907000  0.72718000  1.0 -0.5284270491
O  O104  1  0.18496000  0.22270000  0.76354000  1.0 -0.5284270491
O  O105  1  0.68331000  0.85701000  0.52525000  0.5 -0.1995685358
O  O106  1  0.87691000  0.82153000  0.56697000  0.5 -0.2204398138
O  O107  1  0.77703000  0.79710000  0.49026000  0.5 -0.2204398138
O  O108  1  0.64103000  0.77904000  0.43306000  0.5 -0.209965732
O  O109  1  0.68411000  0.97787000  0.52756000  0.5 -0.1603615404
O  O110  1  0.70809000  0.87850000  0.45110000  0.5 -0.1995685358
O  O111  1  0.80598000  0.97603000  0.52349000  0.5 -0.1995685358
O  O112  1  0.78198000  0.86275000  0.57740000  0.5 -0.209965732
O  O113  1  0.17977000  0.84984000  0.52992000  0.5 -0.1904899965
O  O114  1  0.37826000  0.84419000  0.56298000  0.5 -0.1995685358
O  O115  1  0.27732000  0.80914000  0.49162000  0.5 -0.2204398138
O  O116  1  0.14915000  0.77487000  0.43052000  0.5 -0.1995685358
O  O117  1  0.16166000  0.96855000  0.54357000  0.5 -0.1698022022
O  O118  1  0.20044000  0.88183000  0.45817000  0.5 -0.1995685358
O  O119  1  0.28196000  0.98818000  0.53667000  0.5 -0.180055684
O  O120  1  0.27931000  0.86779000  0.57967000  0.5 -0.209965732
O  O121  1  0.18568000  0.36070000  0.52491000  0.5 -0.1904899965
O  O122  1  0.38327000  0.32492000  0.56126000  0.5 -0.2204398138
O  O123  1  0.27476000  0.30010000  0.49707000  0.5 -0.209965732
O  O124  1  0.14303000  0.28042000  0.43433000  0.5 -0.1995685358
O  O125  1  0.19403000  0.48297000  0.51521000  0.5 -0.1603615404
O  O126  1  0.21153000  0.37546000  0.44873000  0.5 -0.1995685358
O  O127  1  0.31542000  0.47732000  0.50722000  0.5 -0.1904899965
O  O128  1  0.28979000  0.37128000  0.57388000  0.5 -0.1995685358
O  O129  1  0.68082000  0.34718000  0.53474000  0.5 -0.1995685358
O  O130  1  0.87939000  0.34440000  0.56072000  0.5 -0.1995685358
O  O131  1  0.77701000  0.30956000  0.49132000  0.5 -0.2204398138
O  O132  1  0.64499000  0.27319000  0.43639000  0.5 -0.209965732
O  O133  1  0.66072000  0.46543000  0.55201000  0.5 -0.180055684
O  O134  1  0.69620000  0.38072000  0.46312000  0.5 -0.1904899965
O  O135  1  0.78008000  0.48754000  0.53941000  0.5 -0.180055684
O  O136  1  0.78197000  0.36634000  0.57991000  0.5 -0.1995685358
O  O137  1  0.60996000  0.42330000  0.82100000  0.5 -0.1904899965
O  O138  1  0.85428000  0.58126000  0.82989000  0.5 -0.1995685358
O  O139  1  0.77687000  0.48413000  0.79756000  0.5 -0.209965732
O  O140  1  0.70625000  0.50564000  0.79910000  0.5 -0.2204398138
O  O141  1  0.74553000  0.45438000  0.90673000  0.5 -0.2204398138
O  O142  1  0.62066000  0.47279000  0.92903000  0.5 -0.1603615404
O  O143  1  0.73767000  0.56935000  0.95341000  0.5 -0.1995685358
O  O144  1  0.82545000  0.49599000  0.89577000  0.5 -0.1603615404
O  O145  1  0.20513000  0.40277000  0.85055000  0.5 -0.2204398138
O  O146  1  0.38949000  0.53518000  0.84826000  0.5 -0.2204398138
O  O147  1  0.26616000  0.51382000  0.81834000  0.5 -0.2304039062
O  O148  1  0.13357000  0.46665000  0.76704000  0.5 -0.1995685358
O  O149  1  0.26543000  0.46685000  0.90354000  0.5 -0.2304039062
O  O150  1  0.14085000  0.45792000  0.93279000  0.5 -0.180055684
O  O151  1  0.25719000  0.55757000  0.94922000  0.5 -0.1698022022
O  O152  1  0.34919000  0.46929000  0.93268000  0.5 -0.1603615404
O  O153  1  0.12004000  0.42054000  0.33529000  0.5 -0.1995685358
O  O154  1  0.36213000  0.58585000  0.32114000  0.5 -0.1904899965
O  O155  1  0.27115000  0.49715000  0.30255000  0.5 -0.2204398138
O  O156  1  0.16950000  0.52428000  0.28255000  0.5 -0.2304039062
O  O157  1  0.24554000  0.48090000  0.40521000  0.5 -0.2204398138
O  O158  1  0.12162000  0.49455000  0.43158000  0.5 -0.1603615404
O  O159  1  0.23793000  0.59844000  0.43921000  0.5 -0.180055684
O  O160  1  0.32741000  0.51633000  0.39806000  0.5 -0.1603615404
O  O161  1  0.70860000  0.42747000  0.35381000  0.5 -0.1995685358
O  O162  1  0.88096000  0.55004000  0.35077000  0.5 -0.2204398138
O  O163  1  0.77134000  0.49667000  0.31052000  0.5 -0.2204398138
O  O164  1  0.63575000  0.45526000  0.25272000  0.5 -0.1995685358
O  O165  1  0.72772000  0.53020000  0.39599000  0.5 -0.1995685358
O  O166  1  0.63314000  0.45130000  0.42613000  0.5 -0.1904899965
O  O167  1  0.76254000  0.55715000  0.47800000  0.5 -0.1698022022
O  O168  1  0.81961000  0.47328000  0.39968000  0.5 -0.209965732
O  O169  1  0.71069000  0.93335000  0.85117000  0.5 -0.1995685358
O  O170  1  0.88070000  0.04712000  0.85188000  0.5 -0.209965732
O  O171  1  0.76713000  0.00703000  0.80713000  0.5 -0.209965732
O  O172  1  0.63645000  0.96253000  0.75088000  0.5 -0.209965732
O  O173  1  0.72483000  0.03053000  0.89939000  0.5 -0.1995685358
O  O174  1  0.63325000  0.94584000  0.92350000  0.5 -0.1995685358
O  O175  1  0.76506000  0.04646000  0.98227000  0.5 -0.1904899965
O  O176  1  0.81566000  0.96992000  0.89296000  0.5 -0.209965732
O  O177  1  0.15629000  0.93872000  0.87017000  0.5 -0.209965732
O  O178  1  0.37017000  0.08168000  0.82565000  0.5 -0.1904899965
O  O179  1  0.27389000  0.99863000  0.80752000  0.5 -0.2204398138
O  O180  1  0.15386000  0.00656000  0.76190000  0.5 -0.209965732
O  O181  1  0.24614000  0.97845000  0.91990000  0.5 -0.209965732
O  O182  1  0.12990000  0.02939000  0.93034000  0.5 -0.1698022022
O  O183  1  0.26082000  0.09824000  0.95717000  0.5 -0.180055684
O  O184  1  0.33161000  0.00925000  0.89823000  0.5 -0.1904899965
O  O185  1  0.20427000  0.90060000  0.34916000  0.5 -0.2204398138
O  O186  1  0.38515000  0.04282000  0.35629000  0.5 -0.209965732
O  O187  1  0.26429000  0.01465000  0.32271000  0.5 -0.2204398138
O  O188  1  0.13356000  0.95954000  0.26190000  0.5 -0.209965732
O  O189  1  0.26017000  0.96767000  0.40144000  0.5 -0.2204398138
O  O190  1  0.13527000  0.95522000  0.42844000  0.5 -0.1995685358
O  O191  1  0.25246000  0.05766000  0.46209000  0.5 -0.1698022022
O  O192  1  0.34080000  0.97163000  0.42607000  0.5 -0.1698022022
O  O193  1  0.63777000  0.91809000  0.33734000  0.5 -0.1995685358
O  O194  1  0.86681000  0.07410000  0.33072000  0.5 -0.2204398138
O  O195  1  0.76649000  0.00034000  0.30083000  0.5 -0.2204398138
O  O196  1  0.65274000  0.01506000  0.25778000  0.5 -0.2304039062
O  O197  1  0.71781000  0.05925000  0.38012000  0.5 -0.2204398138
O  O198  1  0.62638000  0.98189000  0.42516000  0.5 -0.1698022022
O  O199  1  0.75407000  0.09828000  0.45849000  0.5 -0.1904899965
O  O200  1  0.80636000  0.00295000  0.39103000  0.5 -0.1995685358
O  O201  1  0.66910000  0.84440000  0.03740000  0.5 -0.2204398138
O  O202  1  0.87738000  0.83484000  0.07415000  0.5 -0.1995685358
O  O203  1  0.76668000  0.80947000  0.01412000  0.5 -0.2204398138
O  O204  1  0.65714000  0.79026000  0.92160000  0.5 -0.1904899965
O  O205  1  0.66929000  0.97259000  0.05022000  0.5 -0.1904899965
O  O206  1  0.70897000  0.87883000  0.97352000  0.5 -0.1995685358
O  O207  1  0.79001000  0.98315000  0.05128000  0.5 -0.180055684
O  O208  1  0.77734000  0.86633000  0.10260000  0.5 -0.2304039062
O  O209  1  0.18018000  0.86337000  0.02123000  0.5 -0.1995685358
O  O210  1  0.37367000  0.82738000  0.07303000  0.5 -0.2204398138
O  O211  1  0.27706000  0.80088000  0.99308000  0.5 -0.2204398138
O  O212  1  0.14660000  0.78154000  0.92882000  0.5 -0.1995685358
O  O213  1  0.18363000  0.98422000  0.01882000  0.5 -0.1603615404
O  O214  1  0.21163000  0.88111000  0.94883000  0.5 -0.1904899965
O  O215  1  0.30510000  0.98061000  0.02486000  0.5 -0.180055684
O  O216  1  0.27763000  0.86825000  0.07901000  0.5 -0.209965732
O  O217  1  0.19157000  0.34969000  0.02884000  0.5 -0.1904899965
O  O218  1  0.38491000  0.34109000  0.05666000  0.5 -0.1995685358
O  O219  1  0.27927000  0.30979000  0.99025000  0.5 -0.2204398138
O  O220  1  0.14226000  0.27015000  0.94115000  0.5 -0.2304039062
O  O221  1  0.17311000  0.46838000  0.04390000  0.5 -0.1698022022
O  O222  1  0.20136000  0.37997000  0.95612000  0.5 -0.1995685358
O  O223  1  0.29218000  0.48820000  0.02805000  0.5 -0.1698022022
O  O224  1  0.29164000  0.36907000  0.07281000  0.5 -0.1995685358
O  O225  1  0.68124000  0.36475000  0.02857000  0.5 -0.1995685358
O  O226  1  0.87624000  0.32768000  0.06940000  0.5 -0.2304039062
O  O227  1  0.77434000  0.30221000  0.99584000  0.5 -0.2204398138
O  O228  1  0.64313000  0.28643000  0.93464000  0.5 -0.1995685358
O  O229  1  0.68454000  0.48468000  0.03056000  0.5 -0.1698022022
O  O230  1  0.70683000  0.38428000  0.95437000  0.5 -0.1995685358
O  O231  1  0.80647000  0.48154000  0.02379000  0.5 -0.2204398138
O  O232  1  0.78131000  0.36979000  0.08040000  0.5 -0.209965732
O  O233  1  0.53282000  0.84487000  0.33638000  0.5 -0.2204398138
O  O234  1  0.54165000  0.84188000  0.11324000  0.5 -0.2204398138
O  O235  1  0.53178000  0.80649000  0.23638000  0.5 -0.1995685358
O  O236  1  0.43423000  0.76457000  0.35181000  0.5 -0.1995685358
O  O237  1  0.51847000  0.96913000  0.32807000  0.5 -0.1904899965
O  O238  1  0.46446000  0.85759000  0.29465000  0.5 -0.209965732
O  O239  1  0.47485000  0.95156000  0.22746000  0.5 -0.1698022022
O  O240  1  0.58764000  0.90537000  0.18678000  0.5 -0.1698022022
O  O241  1  0.53066000  0.84266000  0.81448000  0.5 -0.1995685358
O  O242  1  0.55475000  0.84918000  0.61463000  0.5 -0.1995685358
O  O243  1  0.49516000  0.80653000  0.72034000  0.5 -0.209965732
O  O244  1  0.44561000  0.75470000  0.85280000  0.5 -0.209965732
O  O245  1  0.53006000  0.96247000  0.83592000  0.5 -0.1904899965
O  O246  1  0.45381000  0.86527000  0.80378000  0.5 -0.1904899965
O  O247  1  0.51032000  0.98499000  0.71812000  0.5 -0.2204398138
O  O248  1  0.56947000  0.87211000  0.71128000  0.5 -0.1995685358
O  O249  1  0.53620000  0.34682000  0.83739000  0.5 -0.209965732
O  O250  1  0.54151000  0.33752000  0.61282000  0.5 -0.2204398138
O  O251  1  0.52735000  0.30711000  0.73689000  0.5 -0.209965732
O  O252  1  0.43615000  0.26932000  0.85691000  0.5 -0.1995685358
O  O253  1  0.52693000  0.46940000  0.82521000  0.5 -0.180055684
O  O254  1  0.46492000  0.36034000  0.79834000  0.5 -0.209965732
O  O255  1  0.47691000  0.44641000  0.72712000  0.5 -0.180055684
O  O256  1  0.59051000  0.40777000  0.68112000  0.5 -0.1698022022
O  O257  1  0.53128000  0.34475000  0.31549000  0.5 -0.1995685358
O  O258  1  0.55383000  0.34406000  0.11602000  0.5 -0.209965732
O  O259  1  0.49623000  0.30547000  0.22427000  0.5 -0.209965732
O  O260  1  0.44982000  0.25674000  0.36068000  0.5 -0.209965732
O  O261  1  0.52865000  0.46576000  0.33215000  0.5 -0.1904899965
O  O262  1  0.45473000  0.36556000  0.30426000  0.5 -0.1995685358
O  O263  1  0.50724000  0.48313000  0.21403000  0.5 -0.2204398138
O  O264  1  0.56914000  0.37143000  0.21011000  0.5 -0.209965732
O  O265  1  0.03323000  0.84771000  0.31536000  0.5 -0.1995685358
O  O266  1  0.05567000  0.84603000  0.11519000  0.5 -0.209965732
O  O267  1  0.99899000  0.80729000  0.22393000  0.5 -0.209965732
O  O268  1  0.94968000  0.76020000  0.35790000  0.5 -0.1995685358
O  O269  1  0.02987000  0.96858000  0.33149000  0.5 -0.1904899965
O  O270  1  0.95587000  0.86836000  0.30383000  0.5 -0.1904899965
O  O271  1  0.00866000  0.98530000  0.21307000  0.5 -0.2204398138
O  O272  1  0.07107000  0.87396000  0.21057000  0.5 -0.1995685358
O  O273  1  0.03431000  0.85033000  0.83562000  0.5 -0.2204398138
O  O274  1  0.03977000  0.84305000  0.61162000  0.5 -0.2204398138
O  O275  1  0.03284000  0.81010000  0.73563000  0.5 -0.1995685358
O  O276  1  0.93592000  0.77020000  0.85258000  0.5 -0.1904899965
O  O277  1  0.01621000  0.97592000  0.82325000  0.5 -0.1904899965
O  O278  1  0.96685000  0.86142000  0.79289000  0.5 -0.209965732
O  O279  1  0.97353000  0.95560000  0.72357000  0.5 -0.1698022022
O  O280  1  0.08580000  0.90756000  0.68357000  0.5 -0.1698022022
O  O281  1  0.03180000  0.34072000  0.82745000  0.5 -0.209965732
O  O282  1  0.03739000  0.34348000  0.60852000  0.5 -0.1995685358
O  O283  1  0.01711000  0.31030000  0.73102000  0.5 -0.209965732
O  O284  1  0.94000000  0.25580000  0.85519000  0.5 -0.1995685358
O  O285  1  0.02050000  0.46135000  0.82554000  0.5 -0.1995685358
O  O286  1  0.95542000  0.35457000  0.79750000  0.5 -0.209965732
O  O287  1  0.96324000  0.43710000  0.72896000  0.5 -0.1698022022
O  O288  1  0.07770000  0.42669000  0.67182000  0.5 -0.1698022022
O  O289  1  0.03600000  0.34895000  0.33940000  0.5 -0.209965732
O  O290  1  0.03567000  0.34212000  0.11365000  0.5 -0.2204398138
O  O291  1  0.03347000  0.30936000  0.23796000  0.5 -0.1995685358
O  O292  1  0.93677000  0.26983000  0.35584000  0.5 -0.1904899965
O  O293  1  0.02155000  0.47353000  0.32644000  0.5 -0.1904899965
O  O294  1  0.96922000  0.36027000  0.29580000  0.5 -0.209965732
O  O295  1  0.97543000  0.45529000  0.22776000  0.5 -0.1698022022
O  O296  1  0.08584000  0.40621000  0.18405000  0.5 -0.1698022022
