# DDEC6 charges by PACMAN v1.1 (https://github.com/mtap-research/PACMAN-charge/)
data_aav4119_data_file_s7_FSR_pacman
_symmetry_space_group_name_H-M   'P 1'
_cell_length_a   30.37300000
_cell_length_b   30.37300000
_cell_length_c   34.43900000
_cell_angle_alpha   90.00000000
_cell_angle_beta   90.00000000
_cell_angle_gamma   90.00000000
_symmetry_Int_Tables_number   1
_chemical_formula_structural   Zn44.0H332.8C632N59.2O143.2
_chemical_formula_sum   'Zn44.0 H332.8 C632 N59.2 O143.2'
_cell_volume   31770.63628363
_cell_formula_units_Z   1
loop_
 _symmetry_equiv_pos_site_id
 _symmetry_equiv_pos_as_xyz
  1  'x, y, z'
loop_
 _atom_site_type_symbol
 _atom_site_label
 _atom_site_symmetry_multiplicity
 _atom_site_fract_x
 _atom_site_fract_y
 _atom_site_fract_z
 _atom_site_occupancy
 _atom_site_charge
Zn  Zn1  1  0.90041000  0.66750000  0.27376000  1.0 1.0306567015
Zn  Zn2  1  0.09959000  0.33250000  0.27376000  1.0 1.0306567015
Zn  Zn3  1  0.33250000  0.90041000  0.27376000  1.0 1.0306567015
Zn  Zn4  1  0.66750000  0.09959000  0.27376000  1.0 1.0306567015
Zn  Zn5  1  0.59959000  0.16750000  0.22624000  1.0 1.0306567015
Zn  Zn6  1  0.40041000  0.83250000  0.22624000  1.0 1.0306567015
Zn  Zn7  1  0.16750000  0.40041000  0.22624000  1.0 1.0306567015
Zn  Zn8  1  0.83250000  0.59959000  0.22624000  1.0 1.0306567015
Zn  Zn9  1  0.09959000  0.33250000  0.72624000  1.0 1.0306567015
Zn  Zn10  1  0.90041000  0.66750000  0.72624000  1.0 1.0306567015
Zn  Zn11  1  0.66750000  0.09959000  0.72624000  1.0 1.0306567015
Zn  Zn12  1  0.33250000  0.90041000  0.72624000  1.0 1.0306567015
Zn  Zn13  1  0.40041000  0.83250000  0.77376000  1.0 1.0306567015
Zn  Zn14  1  0.59959000  0.16750000  0.77376000  1.0 1.0306567015
Zn  Zn15  1  0.83250000  0.59959000  0.77376000  1.0 1.0306567015
Zn  Zn16  1  0.16750000  0.40041000  0.77376000  1.0 1.0306567015
Zn  Zn17  1  0.00000000  0.00000000  0.16558000  1.0 0.5961090239
Zn  Zn18  1  0.50000000  0.50000000  0.33442000  1.0 0.5961090239
Zn  Zn19  1  0.00000000  0.00000000  0.83442000  1.0 0.5961090239
Zn  Zn20  1  0.50000000  0.50000000  0.66558000  1.0 0.5961090239
Zn  Zn21  1  0.16309000  0.70321000  0.50000000  1.0 0.8105739267
Zn  Zn22  1  0.83691000  0.29679000  0.50000000  1.0 0.8105739267
Zn  Zn23  1  0.29679000  0.16309000  0.50000000  1.0 0.8105739267
Zn  Zn24  1  0.70321000  0.83691000  0.50000000  1.0 0.8105739267
Zn  Zn25  1  0.33691000  0.20321000  0.00000000  1.0 0.8105739267
Zn  Zn26  1  0.66309000  0.79679000  0.00000000  1.0 0.8105739267
Zn  Zn27  1  0.20321000  0.66309000  0.00000000  1.0 0.8178912314
Zn  Zn28  1  0.79679000  0.33691000  0.00000000  1.0 0.8105739267
Zn  Zn29  1  0.93954000  0.75914000  0.33341000  0.45 0.5700188854
Zn  Zn30  1  0.06046000  0.24086000  0.33341000  0.45 0.5785194889
Zn  Zn31  1  0.24086000  0.93954000  0.33341000  0.45 0.5785194889
Zn  Zn32  1  0.75914000  0.06046000  0.33341000  0.45 0.5700188854
Zn  Zn33  1  0.56046000  0.25914000  0.16659000  0.45 0.5700188854
Zn  Zn34  1  0.43954000  0.74086000  0.16659000  0.45 0.5785194889
Zn  Zn35  1  0.25914000  0.43954000  0.16659000  0.45 0.5785194889
Zn  Zn36  1  0.74086000  0.56046000  0.16659000  0.45 0.5700188854
Zn  Zn37  1  0.06046000  0.24086000  0.66659000  0.45 0.5700188854
Zn  Zn38  1  0.93954000  0.75914000  0.66659000  0.45 0.5700188854
Zn  Zn39  1  0.75914000  0.06046000  0.66659000  0.45 0.5700188854
Zn  Zn40  1  0.24086000  0.93954000  0.66659000  0.45 0.5785194889
Zn  Zn41  1  0.43954000  0.74086000  0.83341000  0.45 0.5700188854
Zn  Zn42  1  0.56046000  0.25914000  0.83341000  0.45 0.5700188854
Zn  Zn43  1  0.74086000  0.56046000  0.83341000  0.45 0.5700188854
Zn  Zn44  1  0.25914000  0.43954000  0.83341000  0.45 0.5700188854
Zn  Zn45  1  0.91145000  0.76328000  0.32406000  0.55 0.5294070268
Zn  Zn46  1  0.08855000  0.23672000  0.32406000  0.55 0.5294070268
Zn  Zn47  1  0.23672000  0.91145000  0.32406000  0.55 0.5294070268
Zn  Zn48  1  0.76328000  0.08855000  0.32406000  0.55 0.5294070268
Zn  Zn49  1  0.58855000  0.26328000  0.17594000  0.55 0.5294070268
Zn  Zn50  1  0.41145000  0.73672000  0.17594000  0.55 0.5294070268
Zn  Zn51  1  0.26328000  0.41145000  0.17594000  0.55 0.5294070268
Zn  Zn52  1  0.73672000  0.58855000  0.17594000  0.55 0.5294070268
Zn  Zn53  1  0.08855000  0.23672000  0.67594000  0.55 0.5294070268
Zn  Zn54  1  0.91145000  0.76328000  0.67594000  0.55 0.5294070268
Zn  Zn55  1  0.76328000  0.08855000  0.67594000  0.55 0.5294070268
Zn  Zn56  1  0.23672000  0.91145000  0.67594000  0.55 0.5294070268
Zn  Zn57  1  0.41145000  0.73672000  0.82406000  0.55 0.5294070268
Zn  Zn58  1  0.58855000  0.26328000  0.82406000  0.55 0.5294070268
Zn  Zn59  1  0.73672000  0.58855000  0.82406000  0.55 0.5294070268
Zn  Zn60  1  0.26328000  0.41145000  0.82406000  0.55 0.5294070268
H  H1  1  0.12340000  0.88490000  0.17660000  1.0 0.1307023973
H  H2  1  0.05670000  0.84070000  0.17980000  1.0 0.1307023973
H  H3  1  0.98120000  0.83360000  0.11700000  1.0 0.1307023973
H  H4  1  0.96700000  0.75860000  0.11390000  1.0 0.1216260389
H  H5  1  0.94450000  0.72100000  0.16910000  1.0 0.1216260389
H  H6  1  0.95020000  0.83350000  0.23040000  1.0 0.1307023973
H  H7  1  0.99300000  0.59250000  0.32440000  1.0 0.1307023973
H  H8  1  0.04720000  0.55190000  0.35550000  1.0 0.1216260389
H  H9  1  0.09130000  0.58490000  0.40220000  1.0 0.1307023973
H  H10  1  0.02710000  0.69920000  0.38640000  1.0 0.1307023973
H  H11  1  0.01750000  0.62830000  0.46410000  1.0 0.1216260389
H  H12  1  0.13320000  0.67640000  0.35430000  1.0 0.1307023973
H  H13  1  0.20290000  0.71030000  0.35570000  1.0 0.1307023973
H  H14  1  0.31050000  0.77610000  0.46590000  1.0 0.1216260389
H  H15  1  0.77840000  0.64960000  0.32280000  1.0 0.1307023973
H  H16  1  0.71330000  0.64140000  0.35720000  1.0 0.1088243017
H  H17  1  0.69480000  0.69160000  0.40530000  1.0 0.1216260389
H  H18  1  0.80670000  0.75820000  0.38450000  1.0 0.1367992224
H  H19  1  0.87660000  0.11510000  0.17660000  1.0 0.1307023973
H  H20  1  0.94330000  0.15930000  0.17980000  1.0 0.1307023973
H  H21  1  0.01880000  0.16640000  0.11700000  1.0 0.1307023973
H  H22  1  0.03300000  0.24140000  0.11390000  1.0 0.1216260389
H  H23  1  0.05550000  0.27900000  0.16910000  1.0 0.1216260389
H  H24  1  0.04980000  0.16650000  0.23040000  1.0 0.1307023973
H  H25  1  0.00700000  0.40750000  0.32440000  1.0 0.1307023973
H  H26  1  0.95280000  0.44810000  0.35550000  1.0 0.1216260389
H  H27  1  0.90870000  0.41510000  0.40220000  1.0 0.1307023973
H  H28  1  0.97290000  0.30080000  0.38640000  1.0 0.1307023973
H  H29  1  0.98250000  0.37170000  0.46410000  1.0 0.1216260389
H  H30  1  0.86680000  0.32360000  0.35430000  1.0 0.1307023973
H  H31  1  0.79710000  0.28970000  0.35570000  1.0 0.1307023973
H  H32  1  0.68950000  0.22390000  0.46590000  1.0 0.1216260389
H  H33  1  0.22160000  0.35040000  0.32280000  1.0 0.1307023973
H  H34  1  0.28670000  0.35860000  0.35720000  1.0 0.1088243017
H  H35  1  0.30520000  0.30840000  0.40530000  1.0 0.1216260389
H  H36  1  0.19330000  0.24180000  0.38450000  1.0 0.1367992224
H  H37  1  0.11510000  0.12340000  0.17660000  1.0 0.1307023973
H  H38  1  0.15930000  0.05670000  0.17980000  1.0 0.1307023973
H  H39  1  0.16640000  0.98120000  0.11700000  1.0 0.1307023973
H  H40  1  0.24140000  0.96700000  0.11390000  1.0 0.1216260389
H  H41  1  0.27900000  0.94450000  0.16910000  1.0 0.1216260389
H  H42  1  0.16650000  0.95020000  0.23040000  1.0 0.1307023973
H  H43  1  0.40750000  0.99300000  0.32440000  1.0 0.1307023973
H  H44  1  0.44810000  0.04720000  0.35550000  1.0 0.1216260389
H  H45  1  0.41510000  0.09130000  0.40220000  1.0 0.1307023973
H  H46  1  0.30080000  0.02710000  0.38640000  1.0 0.1307023973
H  H47  1  0.37170000  0.01750000  0.46410000  1.0 0.1216260389
H  H48  1  0.32360000  0.13320000  0.35430000  1.0 0.1307023973
H  H49  1  0.28970000  0.20290000  0.35570000  1.0 0.1307023973
H  H50  1  0.22390000  0.31050000  0.46590000  1.0 0.1216260389
H  H51  1  0.35040000  0.77840000  0.32280000  1.0 0.1307023973
H  H52  1  0.35860000  0.71330000  0.35720000  1.0 0.1088243017
H  H53  1  0.30840000  0.69480000  0.40530000  1.0 0.1216260389
H  H54  1  0.24180000  0.80670000  0.38450000  1.0 0.1367992224
H  H55  1  0.88490000  0.87660000  0.17660000  1.0 0.1307023973
H  H56  1  0.84070000  0.94330000  0.17980000  1.0 0.1307023973
H  H57  1  0.83360000  0.01880000  0.11700000  1.0 0.1307023973
H  H58  1  0.75860000  0.03300000  0.11390000  1.0 0.1216260389
H  H59  1  0.72100000  0.05550000  0.16910000  1.0 0.1216260389
H  H60  1  0.83350000  0.04980000  0.23040000  1.0 0.1307023973
H  H61  1  0.59250000  0.00700000  0.32440000  1.0 0.1307023973
H  H62  1  0.55190000  0.95280000  0.35550000  1.0 0.1216260389
H  H63  1  0.58490000  0.90870000  0.40220000  1.0 0.1307023973
H  H64  1  0.69920000  0.97290000  0.38640000  1.0 0.1307023973
H  H65  1  0.62830000  0.98250000  0.46410000  1.0 0.1216260389
H  H66  1  0.67640000  0.86680000  0.35430000  1.0 0.1307023973
H  H67  1  0.71030000  0.79710000  0.35570000  1.0 0.1307023973
H  H68  1  0.77610000  0.68950000  0.46590000  1.0 0.1216260389
H  H69  1  0.64960000  0.22160000  0.32280000  1.0 0.1307023973
H  H70  1  0.64140000  0.28670000  0.35720000  1.0 0.1088243017
H  H71  1  0.69160000  0.30520000  0.40530000  1.0 0.1216260389
H  H72  1  0.75820000  0.19330000  0.38450000  1.0 0.1367992224
H  H73  1  0.37660000  0.38490000  0.32340000  1.0 0.1307023973
H  H74  1  0.44330000  0.34070000  0.32020000  1.0 0.1307023973
H  H75  1  0.51880000  0.33360000  0.38300000  1.0 0.1307023973
H  H76  1  0.53300000  0.25860000  0.38610000  1.0 0.1216260389
H  H77  1  0.55550000  0.22100000  0.33090000  1.0 0.1216260389
H  H78  1  0.54980000  0.33350000  0.26960000  1.0 0.1307023973
H  H79  1  0.50700000  0.09250000  0.17560000  1.0 0.1307023973
H  H80  1  0.45280000  0.05190000  0.14450000  1.0 0.1216260389
H  H81  1  0.40870000  0.08490000  0.09780000  1.0 0.1307023973
H  H82  1  0.47290000  0.19920000  0.11360000  1.0 0.1307023973
H  H83  1  0.48250000  0.12830000  0.03590000  1.0 0.1216260389
H  H84  1  0.36680000  0.17640000  0.14570000  1.0 0.1307023973
H  H85  1  0.29710000  0.21030000  0.14430000  1.0 0.1307023973
H  H86  1  0.18950000  0.27610000  0.03410000  1.0 0.1216260389
H  H87  1  0.72160000  0.14960000  0.17720000  1.0 0.1307023973
H  H88  1  0.78670000  0.14140000  0.14280000  1.0 0.1088243017
H  H89  1  0.80520000  0.19160000  0.09470000  1.0 0.1216260389
H  H90  1  0.69330000  0.25820000  0.11550000  1.0 0.1367992224
H  H91  1  0.62340000  0.61510000  0.32340000  1.0 0.1307023973
H  H92  1  0.55670000  0.65930000  0.32020000  1.0 0.1307023973
H  H93  1  0.48120000  0.66640000  0.38300000  1.0 0.1307023973
H  H94  1  0.46700000  0.74140000  0.38610000  1.0 0.1216260389
H  H95  1  0.44450000  0.77900000  0.33090000  1.0 0.1216260389
H  H96  1  0.45020000  0.66650000  0.26960000  1.0 0.1307023973
H  H97  1  0.49300000  0.90750000  0.17560000  1.0 0.1307023973
H  H98  1  0.54720000  0.94810000  0.14450000  1.0 0.1216260389
H  H99  1  0.59130000  0.91510000  0.09780000  1.0 0.1307023973
H  H100  1  0.52710000  0.80080000  0.11360000  1.0 0.1307023973
H  H101  1  0.51750000  0.87170000  0.03590000  1.0 0.1216260389
H  H102  1  0.63320000  0.82360000  0.14570000  1.0 0.1307023973
H  H103  1  0.70290000  0.78970000  0.14430000  1.0 0.1307023973
H  H104  1  0.81050000  0.72390000  0.03410000  1.0 0.1216260389
H  H105  1  0.27840000  0.85040000  0.17720000  1.0 0.1307023973
H  H106  1  0.21330000  0.85860000  0.14280000  1.0 0.1088243017
H  H107  1  0.19480000  0.80840000  0.09470000  1.0 0.1216260389
H  H108  1  0.30670000  0.74180000  0.11550000  1.0 0.1367992224
H  H109  1  0.38490000  0.62340000  0.32340000  1.0 0.1307023973
H  H110  1  0.34070000  0.55670000  0.32020000  1.0 0.1307023973
H  H111  1  0.33360000  0.48120000  0.38300000  1.0 0.1307023973
H  H112  1  0.25860000  0.46700000  0.38610000  1.0 0.1216260389
H  H113  1  0.22100000  0.44450000  0.33090000  1.0 0.1216260389
H  H114  1  0.33350000  0.45020000  0.26960000  1.0 0.1307023973
H  H115  1  0.09250000  0.49300000  0.17560000  1.0 0.1307023973
H  H116  1  0.05190000  0.54720000  0.14450000  1.0 0.1216260389
H  H117  1  0.08490000  0.59130000  0.09780000  1.0 0.1307023973
H  H118  1  0.19920000  0.52710000  0.11360000  1.0 0.1307023973
H  H119  1  0.12830000  0.51750000  0.03590000  1.0 0.1216260389
H  H120  1  0.17640000  0.63320000  0.14570000  1.0 0.1307023973
H  H121  1  0.21030000  0.70290000  0.14430000  1.0 0.1307023973
H  H122  1  0.27610000  0.81050000  0.03410000  1.0 0.1216260389
H  H123  1  0.14960000  0.27840000  0.17720000  1.0 0.1307023973
H  H124  1  0.14140000  0.21330000  0.14280000  1.0 0.1088243017
H  H125  1  0.19160000  0.19480000  0.09470000  1.0 0.1216260389
H  H126  1  0.25820000  0.30670000  0.11550000  1.0 0.1367992224
H  H127  1  0.61510000  0.37660000  0.32340000  1.0 0.1307023973
H  H128  1  0.65930000  0.44330000  0.32020000  1.0 0.1307023973
H  H129  1  0.66640000  0.51880000  0.38300000  1.0 0.1307023973
H  H130  1  0.74140000  0.53300000  0.38610000  1.0 0.1216260389
H  H131  1  0.77900000  0.55550000  0.33090000  1.0 0.1216260389
H  H132  1  0.66650000  0.54980000  0.26960000  1.0 0.1307023973
H  H133  1  0.90750000  0.50700000  0.17560000  1.0 0.1307023973
H  H134  1  0.94810000  0.45280000  0.14450000  1.0 0.1216260389
H  H135  1  0.91510000  0.40870000  0.09780000  1.0 0.1307023973
H  H136  1  0.80080000  0.47290000  0.11360000  1.0 0.1307023973
H  H137  1  0.87170000  0.48250000  0.03590000  1.0 0.1216260389
H  H138  1  0.82360000  0.36680000  0.14570000  1.0 0.1307023973
H  H139  1  0.78970000  0.29710000  0.14430000  1.0 0.1307023973
H  H140  1  0.72390000  0.18950000  0.03410000  1.0 0.1216260389
H  H141  1  0.85040000  0.72160000  0.17720000  1.0 0.1307023973
H  H142  1  0.85860000  0.78670000  0.14280000  1.0 0.1088243017
H  H143  1  0.80840000  0.80520000  0.09470000  1.0 0.1216260389
H  H144  1  0.74180000  0.69330000  0.11550000  1.0 0.1367992224
H  H145  1  0.87660000  0.11510000  0.82340000  1.0 0.1307023973
H  H146  1  0.94330000  0.15930000  0.82020000  1.0 0.1307023973
H  H147  1  0.01880000  0.16640000  0.88300000  1.0 0.1307023973
H  H148  1  0.03300000  0.24140000  0.88610000  1.0 0.1216260389
H  H149  1  0.05550000  0.27900000  0.83090000  1.0 0.1216260389
H  H150  1  0.04980000  0.16650000  0.76960000  1.0 0.1307023973
H  H151  1  0.00700000  0.40750000  0.67560000  1.0 0.1307023973
H  H152  1  0.95280000  0.44810000  0.64450000  1.0 0.1216260389
H  H153  1  0.90870000  0.41510000  0.59780000  1.0 0.1307023973
H  H154  1  0.97290000  0.30080000  0.61360000  1.0 0.1307023973
H  H155  1  0.98250000  0.37170000  0.53590000  1.0 0.1216260389
H  H156  1  0.86680000  0.32360000  0.64570000  1.0 0.1307023973
H  H157  1  0.79710000  0.28970000  0.64430000  1.0 0.1307023973
H  H158  1  0.68950000  0.22390000  0.53410000  1.0 0.1216260389
H  H159  1  0.22160000  0.35040000  0.67720000  1.0 0.1307023973
H  H160  1  0.28670000  0.35860000  0.64280000  1.0 0.1088243017
H  H161  1  0.30520000  0.30840000  0.59470000  1.0 0.1216260389
H  H162  1  0.19330000  0.24180000  0.61550000  1.0 0.1367992224
H  H163  1  0.12340000  0.88490000  0.82340000  1.0 0.1307023973
H  H164  1  0.05670000  0.84070000  0.82020000  1.0 0.1307023973
H  H165  1  0.98120000  0.83360000  0.88300000  1.0 0.1307023973
H  H166  1  0.96700000  0.75860000  0.88610000  1.0 0.1216260389
H  H167  1  0.94450000  0.72100000  0.83090000  1.0 0.1216260389
H  H168  1  0.95020000  0.83350000  0.76960000  1.0 0.1307023973
H  H169  1  0.99300000  0.59250000  0.67560000  1.0 0.1307023973
H  H170  1  0.04720000  0.55190000  0.64450000  1.0 0.1216260389
H  H171  1  0.09130000  0.58490000  0.59780000  1.0 0.1307023973
H  H172  1  0.02710000  0.69920000  0.61360000  1.0 0.1307023973
H  H173  1  0.01750000  0.62830000  0.53590000  1.0 0.1216260389
H  H174  1  0.13320000  0.67640000  0.64570000  1.0 0.1307023973
H  H175  1  0.20290000  0.71030000  0.64430000  1.0 0.1307023973
H  H176  1  0.31050000  0.77610000  0.53410000  1.0 0.1216260389
H  H177  1  0.77840000  0.64960000  0.67720000  1.0 0.1307023973
H  H178  1  0.71330000  0.64140000  0.64280000  1.0 0.1088243017
H  H179  1  0.69480000  0.69160000  0.59470000  1.0 0.1216260389
H  H180  1  0.80670000  0.75820000  0.61550000  1.0 0.1367992224
H  H181  1  0.88490000  0.87660000  0.82340000  1.0 0.1307023973
H  H182  1  0.84070000  0.94330000  0.82020000  1.0 0.1307023973
H  H183  1  0.83360000  0.01880000  0.88300000  1.0 0.1307023973
H  H184  1  0.75860000  0.03300000  0.88610000  1.0 0.1216260389
H  H185  1  0.72100000  0.05550000  0.83090000  1.0 0.1216260389
H  H186  1  0.83350000  0.04980000  0.76960000  1.0 0.1307023973
H  H187  1  0.59250000  0.00700000  0.67560000  1.0 0.1307023973
H  H188  1  0.55190000  0.95280000  0.64450000  1.0 0.1216260389
H  H189  1  0.58490000  0.90870000  0.59780000  1.0 0.1307023973
H  H190  1  0.69920000  0.97290000  0.61360000  1.0 0.1307023973
H  H191  1  0.62830000  0.98250000  0.53590000  1.0 0.1216260389
H  H192  1  0.67640000  0.86680000  0.64570000  1.0 0.1307023973
H  H193  1  0.71030000  0.79710000  0.64430000  1.0 0.1307023973
H  H194  1  0.77610000  0.68950000  0.53410000  1.0 0.1216260389
H  H195  1  0.64960000  0.22160000  0.67720000  1.0 0.1307023973
H  H196  1  0.64140000  0.28670000  0.64280000  1.0 0.1088243017
H  H197  1  0.69160000  0.30520000  0.59470000  1.0 0.1216260389
H  H198  1  0.75820000  0.19330000  0.61550000  1.0 0.1367992224
H  H199  1  0.11510000  0.12340000  0.82340000  1.0 0.1307023973
H  H200  1  0.15930000  0.05670000  0.82020000  1.0 0.1307023973
H  H201  1  0.16640000  0.98120000  0.88300000  1.0 0.1307023973
H  H202  1  0.24140000  0.96700000  0.88610000  1.0 0.1216260389
H  H203  1  0.27900000  0.94450000  0.83090000  1.0 0.1216260389
H  H204  1  0.16650000  0.95020000  0.76960000  1.0 0.1307023973
H  H205  1  0.40750000  0.99300000  0.67560000  1.0 0.1307023973
H  H206  1  0.44810000  0.04720000  0.64450000  1.0 0.1216260389
H  H207  1  0.41510000  0.09130000  0.59780000  1.0 0.1307023973
H  H208  1  0.30080000  0.02710000  0.61360000  1.0 0.1307023973
H  H209  1  0.37170000  0.01750000  0.53590000  1.0 0.1216260389
H  H210  1  0.32360000  0.13320000  0.64570000  1.0 0.1307023973
H  H211  1  0.28970000  0.20290000  0.64430000  1.0 0.1307023973
H  H212  1  0.22390000  0.31050000  0.53410000  1.0 0.1216260389
H  H213  1  0.35040000  0.77840000  0.67720000  1.0 0.1307023973
H  H214  1  0.35860000  0.71330000  0.64280000  1.0 0.1088243017
H  H215  1  0.30840000  0.69480000  0.59470000  1.0 0.1216260389
H  H216  1  0.24180000  0.80670000  0.61550000  1.0 0.1367992224
H  H217  1  0.62340000  0.61510000  0.67660000  1.0 0.1307023973
H  H218  1  0.55670000  0.65930000  0.67980000  1.0 0.1307023973
H  H219  1  0.48120000  0.66640000  0.61700000  1.0 0.1307023973
H  H220  1  0.46700000  0.74140000  0.61390000  1.0 0.1216260389
H  H221  1  0.44450000  0.77900000  0.66910000  1.0 0.1216260389
H  H222  1  0.45020000  0.66650000  0.73040000  1.0 0.1307023973
H  H223  1  0.49300000  0.90750000  0.82440000  1.0 0.1307023973
H  H224  1  0.54720000  0.94810000  0.85550000  1.0 0.1216260389
H  H225  1  0.59130000  0.91510000  0.90220000  1.0 0.1307023973
H  H226  1  0.52710000  0.80080000  0.88640000  1.0 0.1307023973
H  H227  1  0.51750000  0.87170000  0.96410000  1.0 0.1216260389
H  H228  1  0.63320000  0.82360000  0.85430000  1.0 0.1307023973
H  H229  1  0.70290000  0.78970000  0.85570000  1.0 0.1307023973
H  H230  1  0.81050000  0.72390000  0.96590000  1.0 0.1216260389
H  H231  1  0.27840000  0.85040000  0.82280000  1.0 0.1307023973
H  H232  1  0.21330000  0.85860000  0.85720000  1.0 0.1088243017
H  H233  1  0.19480000  0.80840000  0.90530000  1.0 0.1216260389
H  H234  1  0.30670000  0.74180000  0.88450000  1.0 0.1367992224
H  H235  1  0.37660000  0.38490000  0.67660000  1.0 0.1307023973
H  H236  1  0.44330000  0.34070000  0.67980000  1.0 0.1307023973
H  H237  1  0.51880000  0.33360000  0.61700000  1.0 0.1307023973
H  H238  1  0.53300000  0.25860000  0.61390000  1.0 0.1216260389
H  H239  1  0.55550000  0.22100000  0.66910000  1.0 0.1216260389
H  H240  1  0.54980000  0.33350000  0.73040000  1.0 0.1307023973
H  H241  1  0.50700000  0.09250000  0.82440000  1.0 0.1307023973
H  H242  1  0.45280000  0.05190000  0.85550000  1.0 0.1216260389
H  H243  1  0.40870000  0.08490000  0.90220000  1.0 0.1307023973
H  H244  1  0.47290000  0.19920000  0.88640000  1.0 0.1307023973
H  H245  1  0.48250000  0.12830000  0.96410000  1.0 0.1216260389
H  H246  1  0.36680000  0.17640000  0.85430000  1.0 0.1307023973
H  H247  1  0.29710000  0.21030000  0.85570000  1.0 0.1307023973
H  H248  1  0.18950000  0.27610000  0.96590000  1.0 0.1216260389
H  H249  1  0.72160000  0.14960000  0.82280000  1.0 0.1307023973
H  H250  1  0.78670000  0.14140000  0.85720000  1.0 0.1088243017
H  H251  1  0.80520000  0.19160000  0.90530000  1.0 0.1216260389
H  H252  1  0.69330000  0.25820000  0.88450000  1.0 0.1367992224
H  H253  1  0.61510000  0.37660000  0.67660000  1.0 0.1307023973
H  H254  1  0.65930000  0.44330000  0.67980000  1.0 0.1307023973
H  H255  1  0.66640000  0.51880000  0.61700000  1.0 0.1307023973
H  H256  1  0.74140000  0.53300000  0.61390000  1.0 0.1216260389
H  H257  1  0.77900000  0.55550000  0.66910000  1.0 0.1216260389
H  H258  1  0.66650000  0.54980000  0.73040000  1.0 0.1307023973
H  H259  1  0.90750000  0.50700000  0.82440000  1.0 0.1307023973
H  H260  1  0.94810000  0.45280000  0.85550000  1.0 0.1216260389
H  H261  1  0.91510000  0.40870000  0.90220000  1.0 0.1307023973
H  H262  1  0.80080000  0.47290000  0.88640000  1.0 0.1307023973
H  H263  1  0.87170000  0.48250000  0.96410000  1.0 0.1216260389
H  H264  1  0.82360000  0.36680000  0.85430000  1.0 0.1307023973
H  H265  1  0.78970000  0.29710000  0.85570000  1.0 0.1307023973
H  H266  1  0.72390000  0.18950000  0.96590000  1.0 0.1216260389
H  H267  1  0.85040000  0.72160000  0.82280000  1.0 0.1307023973
H  H268  1  0.85860000  0.78670000  0.85720000  1.0 0.1088243017
H  H269  1  0.80840000  0.80520000  0.90530000  1.0 0.1216260389
H  H270  1  0.74180000  0.69330000  0.88450000  1.0 0.1367992224
H  H271  1  0.38490000  0.62340000  0.67660000  1.0 0.1307023973
H  H272  1  0.34070000  0.55670000  0.67980000  1.0 0.1307023973
H  H273  1  0.33360000  0.48120000  0.61700000  1.0 0.1307023973
H  H274  1  0.25860000  0.46700000  0.61390000  1.0 0.1216260389
H  H275  1  0.22100000  0.44450000  0.66910000  1.0 0.1216260389
H  H276  1  0.33350000  0.45020000  0.73040000  1.0 0.1307023973
H  H277  1  0.09250000  0.49300000  0.82440000  1.0 0.1307023973
H  H278  1  0.05190000  0.54720000  0.85550000  1.0 0.1216260389
H  H279  1  0.08490000  0.59130000  0.90220000  1.0 0.1307023973
H  H280  1  0.19920000  0.52710000  0.88640000  1.0 0.1307023973
H  H281  1  0.12830000  0.51750000  0.96410000  1.0 0.1216260389
H  H282  1  0.17640000  0.63320000  0.85430000  1.0 0.1307023973
H  H283  1  0.21030000  0.70290000  0.85570000  1.0 0.1307023973
H  H284  1  0.27610000  0.81050000  0.96590000  1.0 0.1216260389
H  H285  1  0.14960000  0.27840000  0.82280000  1.0 0.1307023973
H  H286  1  0.14140000  0.21330000  0.85720000  1.0 0.1088243017
H  H287  1  0.19160000  0.19480000  0.90530000  1.0 0.1216260389
H  H288  1  0.25820000  0.30670000  0.88450000  1.0 0.1367992224
H  H289  1  0.97000000  0.82440000  0.40380000  0.45 0.1088243017
H  H290  1  0.96380000  0.82660000  0.47090000  0.45 0.1088243017
H  H291  1  0.90860000  0.70640000  0.47010000  0.45 0.1216260389
H  H292  1  0.91480000  0.70410000  0.40300000  0.45 0.1088243017
H  H293  1  0.03000000  0.17560000  0.40380000  0.45 0.1088243017
H  H294  1  0.03620000  0.17340000  0.47090000  0.45 0.1088243017
H  H295  1  0.09140000  0.29360000  0.47010000  0.45 0.1216260389
H  H296  1  0.08520000  0.29590000  0.40300000  0.45 0.1088243017
H  H297  1  0.17560000  0.97000000  0.40380000  0.45 0.1088243017
H  H298  1  0.17340000  0.96380000  0.47090000  0.45 0.1088243017
H  H299  1  0.29360000  0.90860000  0.47010000  0.45 0.1216260389
H  H300  1  0.29590000  0.91480000  0.40300000  0.45 0.1088243017
H  H301  1  0.82440000  0.03000000  0.40380000  0.45 0.1088243017
H  H302  1  0.82660000  0.03620000  0.47090000  0.45 0.1088243017
H  H303  1  0.70640000  0.09140000  0.47010000  0.45 0.1216260389
H  H304  1  0.70410000  0.08520000  0.40300000  0.45 0.1088243017
H  H305  1  0.53000000  0.32440000  0.09620000  0.45 0.1088243017
H  H306  1  0.53620000  0.32660000  0.02910000  0.45 0.1088243017
H  H307  1  0.59140000  0.20640000  0.02990000  0.45 0.1216260389
H  H308  1  0.58520000  0.20410000  0.09700000  0.45 0.1088243017
H  H309  1  0.47000000  0.67560000  0.09620000  0.45 0.1088243017
H  H310  1  0.46380000  0.67340000  0.02910000  0.45 0.1088243017
H  H311  1  0.40860000  0.79360000  0.02990000  0.45 0.1216260389
H  H312  1  0.41480000  0.79590000  0.09700000  0.45 0.1088243017
H  H313  1  0.32440000  0.47000000  0.09620000  0.45 0.1088243017
H  H314  1  0.32660000  0.46380000  0.02910000  0.45 0.1088243017
H  H315  1  0.20640000  0.40860000  0.02990000  0.45 0.1216260389
H  H316  1  0.20410000  0.41480000  0.09700000  0.45 0.1088243017
H  H317  1  0.67560000  0.53000000  0.09620000  0.45 0.1088243017
H  H318  1  0.67340000  0.53620000  0.02910000  0.45 0.1088243017
H  H319  1  0.79360000  0.59140000  0.02990000  0.45 0.1216260389
H  H320  1  0.79590000  0.58520000  0.09700000  0.45 0.1088243017
H  H321  1  0.03000000  0.17560000  0.59620000  0.45 0.1088243017
H  H322  1  0.03620000  0.17340000  0.52910000  0.45 0.1088243017
H  H323  1  0.09140000  0.29360000  0.52990000  0.45 0.1216260389
H  H324  1  0.08520000  0.29590000  0.59700000  0.45 0.1088243017
H  H325  1  0.97000000  0.82440000  0.59620000  0.45 0.1088243017
H  H326  1  0.96380000  0.82660000  0.52910000  0.45 0.1088243017
H  H327  1  0.90860000  0.70640000  0.52990000  0.45 0.1216260389
H  H328  1  0.91480000  0.70410000  0.59700000  0.45 0.1088243017
H  H329  1  0.82440000  0.03000000  0.59620000  0.45 0.1088243017
H  H330  1  0.82660000  0.03620000  0.52910000  0.45 0.1088243017
H  H331  1  0.70640000  0.09140000  0.52990000  0.45 0.1216260389
H  H332  1  0.70410000  0.08520000  0.59700000  0.45 0.1088243017
H  H333  1  0.17560000  0.97000000  0.59620000  0.45 0.1088243017
H  H334  1  0.17340000  0.96380000  0.52910000  0.45 0.1088243017
H  H335  1  0.29360000  0.90860000  0.52990000  0.45 0.1216260389
H  H336  1  0.29590000  0.91480000  0.59700000  0.45 0.1088243017
H  H337  1  0.47000000  0.67560000  0.90380000  0.45 0.1088243017
H  H338  1  0.46380000  0.67340000  0.97090000  0.45 0.1088243017
H  H339  1  0.40860000  0.79360000  0.97010000  0.45 0.1216260389
H  H340  1  0.41480000  0.79590000  0.90300000  0.45 0.1088243017
H  H341  1  0.53000000  0.32440000  0.90380000  0.45 0.1088243017
H  H342  1  0.53620000  0.32660000  0.97090000  0.45 0.1088243017
H  H343  1  0.59140000  0.20640000  0.97010000  0.45 0.1216260389
H  H344  1  0.58520000  0.20410000  0.90300000  0.45 0.1088243017
H  H345  1  0.67560000  0.53000000  0.90380000  0.45 0.1088243017
H  H346  1  0.67340000  0.53620000  0.97090000  0.45 0.1088243017
H  H347  1  0.79360000  0.59140000  0.97010000  0.45 0.1216260389
H  H348  1  0.79590000  0.58520000  0.90300000  0.45 0.1088243017
H  H349  1  0.32440000  0.47000000  0.90380000  0.45 0.1088243017
H  H350  1  0.32660000  0.46380000  0.97090000  0.45 0.1088243017
H  H351  1  0.20640000  0.40860000  0.97010000  0.45 0.1216260389
H  H352  1  0.20410000  0.41480000  0.90300000  0.45 0.1088243017
H  H353  1  0.97590000  0.05880000  0.09480000  0.5 0.1088243017
H  H354  1  0.97600000  0.05890000  0.03090000  0.5 0.1088243017
H  H355  1  0.02410000  0.94120000  0.09480000  0.5 0.1088243017
H  H356  1  0.02400000  0.94110000  0.03090000  0.5 0.1088243017
H  H357  1  0.94120000  0.97590000  0.09480000  0.5 0.1088243017
H  H358  1  0.94110000  0.97600000  0.03090000  0.5 0.1088243017
H  H359  1  0.05880000  0.02410000  0.09480000  0.5 0.1088243017
H  H360  1  0.05890000  0.02400000  0.03090000  0.5 0.1088243017
H  H361  1  0.52410000  0.55880000  0.40520000  0.5 0.1088243017
H  H362  1  0.52400000  0.55890000  0.46910000  0.5 0.1088243017
H  H363  1  0.47590000  0.44120000  0.40520000  0.5 0.1088243017
H  H364  1  0.47600000  0.44110000  0.46910000  0.5 0.1088243017
H  H365  1  0.55880000  0.47590000  0.40520000  0.5 0.1088243017
H  H366  1  0.55890000  0.47600000  0.46910000  0.5 0.1088243017
H  H367  1  0.44120000  0.52410000  0.40520000  0.5 0.1088243017
H  H368  1  0.44110000  0.52400000  0.46910000  0.5 0.1088243017
H  H369  1  0.02410000  0.94120000  0.90520000  0.5 0.1088243017
H  H370  1  0.02400000  0.94110000  0.96910000  0.5 0.1088243017
H  H371  1  0.97590000  0.05880000  0.90520000  0.5 0.1088243017
H  H372  1  0.97600000  0.05890000  0.96910000  0.5 0.1088243017
H  H373  1  0.05880000  0.02410000  0.90520000  0.5 0.1088243017
H  H374  1  0.05890000  0.02400000  0.96910000  0.5 0.1088243017
H  H375  1  0.94120000  0.97590000  0.90520000  0.5 0.1088243017
H  H376  1  0.94110000  0.97600000  0.96910000  0.5 0.1088243017
H  H377  1  0.47590000  0.44120000  0.59480000  0.5 0.1088243017
H  H378  1  0.47600000  0.44110000  0.53090000  0.5 0.1088243017
H  H379  1  0.52410000  0.55880000  0.59480000  0.5 0.1088243017
H  H380  1  0.52400000  0.55890000  0.53090000  0.5 0.1088243017
H  H381  1  0.44120000  0.52410000  0.59480000  0.5 0.1088243017
H  H382  1  0.44110000  0.52400000  0.53090000  0.5 0.1088243017
H  H383  1  0.55880000  0.47590000  0.59480000  0.5 0.1088243017
H  H384  1  0.55890000  0.47600000  0.53090000  0.5 0.1088243017
C  C1  1  0.08310000  0.94219000  0.17546000  1.0 0.1718746364
C  C2  1  0.09480000  0.89580000  0.17670000  1.0 -0.1999599472
C  C3  1  0.05830000  0.87120000  0.17790000  1.0 -0.1866147233
C  C4  1  0.02147000  0.90223000  0.17578000  1.0 0.1890357926
C  C5  1  0.97680000  0.88937000  0.17462000  1.0 -0.0914346853
C  C6  1  0.96711000  0.84094000  0.17400000  1.0 0.0828918752
C  C7  1  0.97214000  0.81851000  0.13910000  1.0 -0.1546919396
C  C8  1  0.96370000  0.77359000  0.13727000  1.0 -0.0998016268
C  C9  1  0.95016000  0.75110000  0.17034000  1.0 -0.0998016268
C  C10  1  0.94513000  0.77353000  0.20524000  1.0 -0.0762821076
C  C11  1  0.95361000  0.81845000  0.20707000  1.0 -0.1419997001
C  C12  1  0.93100000  0.74880000  0.23870000  1.0 0.5785194889
C  C13  1  0.97010000  0.67670000  0.33380000  1.0 0.5357394467
C  C14  1  0.00470000  0.64990000  0.35229000  1.0 -0.0395533616
C  C15  1  0.01070000  0.60570000  0.34300000  1.0 -0.1094884425
C  C16  1  0.04320000  0.58140000  0.36170000  1.0 -0.0998016268
C  C17  1  0.06960000  0.60120000  0.38970000  1.0 -0.1299976255
C  C18  1  0.06361000  0.64530000  0.39890000  1.0 0.0828918752
C  C19  1  0.03116000  0.66970000  0.38022000  1.0 -0.1419997001
C  C20  1  0.03970000  0.63900000  0.48010000  1.0 -0.1672646671
C  C21  1  0.08090000  0.65880000  0.46730000  1.0 0.1846248526
C  C22  1  0.09440000  0.66270000  0.42960000  1.0 -0.0998016268
C  C23  1  0.13240000  0.68230000  0.41740000  1.0 0.1631058888
C  C24  1  0.14790000  0.68610000  0.37640000  1.0 -0.1299976255
C  C25  1  0.18520000  0.70530000  0.37730000  1.0 -0.1672646671
C  C26  1  0.19660000  0.71880000  0.41760000  1.0 0.2099062489
C  C27  1  0.23800000  0.73450000  0.42880000  1.0 -0.0914346853
C  C28  1  0.24860000  0.74280000  0.46700000  1.0 0.1718746364
C  C29  1  0.28840000  0.76430000  0.48140000  1.0 -0.1563727348
C  C30  1  0.84140000  0.70760000  0.32890000  1.0 0.5700188854
C  C31  1  0.79898000  0.70471000  0.35023000  1.0 -0.0203800435
C  C32  1  0.77100000  0.66970000  0.34210000  1.0 -0.1094884425
C  C33  1  0.73200000  0.66480000  0.36270000  1.0 -0.0914346853
C  C34  1  0.72090000  0.69490000  0.39150000  1.0 -0.1299976255
C  C35  1  0.74890000  0.72990000  0.39967000  1.0 0.0828918752
C  C36  1  0.78790000  0.73481000  0.37903000  1.0 -0.1299976255
C  C37  1  0.91690000  0.05781000  0.17546000  1.0 0.1718746364
C  C38  1  0.90520000  0.10420000  0.17670000  1.0 -0.1999599472
C  C39  1  0.94170000  0.12880000  0.17790000  1.0 -0.1866147233
C  C40  1  0.97853000  0.09777000  0.17578000  1.0 0.1890357926
C  C41  1  0.02320000  0.11063000  0.17462000  1.0 -0.0914346853
C  C42  1  0.03289000  0.15906000  0.17400000  1.0 0.0828918752
C  C43  1  0.02786000  0.18149000  0.13910000  1.0 -0.1546919396
C  C44  1  0.03630000  0.22641000  0.13727000  1.0 -0.0998016268
C  C45  1  0.04984000  0.24890000  0.17034000  1.0 -0.0998016268
C  C46  1  0.05487000  0.22647000  0.20524000  1.0 -0.0762821076
C  C47  1  0.04639000  0.18155000  0.20707000  1.0 -0.1419997001
C  C48  1  0.06900000  0.25120000  0.23870000  1.0 0.5785194889
C  C49  1  0.02990000  0.32330000  0.33380000  1.0 0.5357394467
C  C50  1  0.99530000  0.35010000  0.35229000  1.0 -0.0395533616
C  C51  1  0.98930000  0.39430000  0.34300000  1.0 -0.1094884425
C  C52  1  0.95680000  0.41860000  0.36170000  1.0 -0.0998016268
C  C53  1  0.93040000  0.39880000  0.38970000  1.0 -0.1299976255
C  C54  1  0.93639000  0.35470000  0.39890000  1.0 0.0828918752
C  C55  1  0.96884000  0.33030000  0.38022000  1.0 -0.1419997001
C  C56  1  0.96030000  0.36100000  0.48010000  1.0 -0.1672646671
C  C57  1  0.91910000  0.34120000  0.46730000  1.0 0.1846248526
C  C58  1  0.90560000  0.33730000  0.42960000  1.0 -0.0998016268
C  C59  1  0.86760000  0.31770000  0.41740000  1.0 0.1631058888
C  C60  1  0.85210000  0.31390000  0.37640000  1.0 -0.1299976255
C  C61  1  0.81480000  0.29470000  0.37730000  1.0 -0.1672646671
C  C62  1  0.80340000  0.28120000  0.41760000  1.0 0.2099062489
C  C63  1  0.76200000  0.26550000  0.42880000  1.0 -0.0914346853
C  C64  1  0.75140000  0.25720000  0.46700000  1.0 0.1718746364
C  C65  1  0.71160000  0.23570000  0.48140000  1.0 -0.1563727348
C  C66  1  0.15860000  0.29240000  0.32890000  1.0 0.5700188854
C  C67  1  0.20102000  0.29529000  0.35023000  1.0 -0.0203800435
C  C68  1  0.22900000  0.33030000  0.34210000  1.0 -0.1094884425
C  C69  1  0.26800000  0.33520000  0.36270000  1.0 -0.0914346853
C  C70  1  0.27910000  0.30510000  0.39150000  1.0 -0.1299976255
C  C71  1  0.25110000  0.27010000  0.39967000  1.0 0.0828918752
C  C72  1  0.21210000  0.26519000  0.37903000  1.0 -0.1299976255
C  C73  1  0.05781000  0.08310000  0.17546000  1.0 0.1718746364
C  C74  1  0.10420000  0.09480000  0.17670000  1.0 -0.1999599472
C  C75  1  0.12880000  0.05830000  0.17790000  1.0 -0.1866147233
C  C76  1  0.09777000  0.02147000  0.17578000  1.0 0.1890357926
C  C77  1  0.11063000  0.97680000  0.17462000  1.0 -0.0914346853
C  C78  1  0.15906000  0.96711000  0.17400000  1.0 0.0828918752
C  C79  1  0.18149000  0.97214000  0.13910000  1.0 -0.1546919396
C  C80  1  0.22641000  0.96370000  0.13727000  1.0 -0.0998016268
C  C81  1  0.24890000  0.95016000  0.17034000  1.0 -0.0998016268
C  C82  1  0.22647000  0.94513000  0.20524000  1.0 -0.0762821076
C  C83  1  0.18155000  0.95361000  0.20707000  1.0 -0.1419997001
C  C84  1  0.25120000  0.93100000  0.23870000  1.0 0.5785194889
C  C85  1  0.32330000  0.97010000  0.33380000  1.0 0.5357394467
C  C86  1  0.35010000  0.00470000  0.35229000  1.0 -0.0395533616
C  C87  1  0.39430000  0.01070000  0.34300000  1.0 -0.1094884425
C  C88  1  0.41860000  0.04320000  0.36170000  1.0 -0.0998016268
C  C89  1  0.39880000  0.06960000  0.38970000  1.0 -0.1299976255
C  C90  1  0.35470000  0.06361000  0.39890000  1.0 0.0828918752
C  C91  1  0.33030000  0.03116000  0.38022000  1.0 -0.1419997001
C  C92  1  0.36100000  0.03970000  0.48010000  1.0 -0.1672646671
C  C93  1  0.34120000  0.08090000  0.46730000  1.0 0.1846248526
C  C94  1  0.33730000  0.09440000  0.42960000  1.0 -0.0998016268
C  C95  1  0.31770000  0.13240000  0.41740000  1.0 0.1631058888
C  C96  1  0.31390000  0.14790000  0.37640000  1.0 -0.1299976255
C  C97  1  0.29470000  0.18520000  0.37730000  1.0 -0.1672646671
C  C98  1  0.28120000  0.19660000  0.41760000  1.0 0.2099062489
C  C99  1  0.26550000  0.23800000  0.42880000  1.0 -0.0914346853
C  C100  1  0.25720000  0.24860000  0.46700000  1.0 0.1718746364
C  C101  1  0.23570000  0.28840000  0.48140000  1.0 -0.1563727348
C  C102  1  0.29240000  0.84140000  0.32890000  1.0 0.5700188854
C  C103  1  0.29529000  0.79898000  0.35023000  1.0 -0.0203800435
C  C104  1  0.33030000  0.77100000  0.34210000  1.0 -0.1094884425
C  C105  1  0.33520000  0.73200000  0.36270000  1.0 -0.0914346853
C  C106  1  0.30510000  0.72090000  0.39150000  1.0 -0.1299976255
C  C107  1  0.27010000  0.74890000  0.39967000  1.0 0.0828918752
C  C108  1  0.26519000  0.78790000  0.37903000  1.0 -0.1299976255
C  C109  1  0.94219000  0.91690000  0.17546000  1.0 0.1718746364
C  C110  1  0.89580000  0.90520000  0.17670000  1.0 -0.1999599472
C  C111  1  0.87120000  0.94170000  0.17790000  1.0 -0.1866147233
C  C112  1  0.90223000  0.97853000  0.17578000  1.0 0.1890357926
C  C113  1  0.88937000  0.02320000  0.17462000  1.0 -0.0914346853
C  C114  1  0.84094000  0.03289000  0.17400000  1.0 0.0828918752
C  C115  1  0.81851000  0.02786000  0.13910000  1.0 -0.1546919396
C  C116  1  0.77359000  0.03630000  0.13727000  1.0 -0.0998016268
C  C117  1  0.75110000  0.04984000  0.17034000  1.0 -0.0998016268
C  C118  1  0.77353000  0.05487000  0.20524000  1.0 -0.0762821076
C  C119  1  0.81845000  0.04639000  0.20707000  1.0 -0.1419997001
C  C120  1  0.74880000  0.06900000  0.23870000  1.0 0.5785194889
C  C121  1  0.67670000  0.02990000  0.33380000  1.0 0.5357394467
C  C122  1  0.64990000  0.99530000  0.35229000  1.0 -0.0395533616
C  C123  1  0.60570000  0.98930000  0.34300000  1.0 -0.1094884425
C  C124  1  0.58140000  0.95680000  0.36170000  1.0 -0.0998016268
C  C125  1  0.60120000  0.93040000  0.38970000  1.0 -0.1299976255
C  C126  1  0.64530000  0.93639000  0.39890000  1.0 0.0828918752
C  C127  1  0.66970000  0.96884000  0.38022000  1.0 -0.1419997001
C  C128  1  0.63900000  0.96030000  0.48010000  1.0 -0.1672646671
C  C129  1  0.65880000  0.91910000  0.46730000  1.0 0.1846248526
C  C130  1  0.66270000  0.90560000  0.42960000  1.0 -0.0998016268
C  C131  1  0.68230000  0.86760000  0.41740000  1.0 0.1631058888
C  C132  1  0.68610000  0.85210000  0.37640000  1.0 -0.1299976255
C  C133  1  0.70530000  0.81480000  0.37730000  1.0 -0.1672646671
C  C134  1  0.71880000  0.80340000  0.41760000  1.0 0.2099062489
C  C135  1  0.73450000  0.76200000  0.42880000  1.0 -0.0914346853
C  C136  1  0.74280000  0.75140000  0.46700000  1.0 0.1718746364
C  C137  1  0.76430000  0.71160000  0.48140000  1.0 -0.1563727348
C  C138  1  0.70760000  0.15860000  0.32890000  1.0 0.5700188854
C  C139  1  0.70471000  0.20102000  0.35023000  1.0 -0.0203800435
C  C140  1  0.66970000  0.22900000  0.34210000  1.0 -0.1094884425
C  C141  1  0.66480000  0.26800000  0.36270000  1.0 -0.0914346853
C  C142  1  0.69490000  0.27910000  0.39150000  1.0 -0.1299976255
C  C143  1  0.72990000  0.25110000  0.39967000  1.0 0.0828918752
C  C144  1  0.73481000  0.21210000  0.37903000  1.0 -0.1299976255
C  C145  1  0.41690000  0.44219000  0.32454000  1.0 0.1718746364
C  C146  1  0.40520000  0.39580000  0.32330000  1.0 -0.1999599472
C  C147  1  0.44170000  0.37120000  0.32210000  1.0 -0.1866147233
C  C148  1  0.47853000  0.40223000  0.32422000  1.0 0.1890357926
C  C149  1  0.52320000  0.38937000  0.32538000  1.0 -0.0914346853
C  C150  1  0.53289000  0.34094000  0.32600000  1.0 0.0828918752
C  C151  1  0.52786000  0.31851000  0.36090000  1.0 -0.1546919396
C  C152  1  0.53630000  0.27359000  0.36273000  1.0 -0.0998016268
C  C153  1  0.54984000  0.25110000  0.32966000  1.0 -0.0998016268
C  C154  1  0.55487000  0.27353000  0.29476000  1.0 -0.0762821076
C  C155  1  0.54639000  0.31845000  0.29293000  1.0 -0.1419997001
C  C156  1  0.56900000  0.24880000  0.26130000  1.0 0.5785194889
C  C157  1  0.52990000  0.17670000  0.16620000  1.0 0.5357394467
C  C158  1  0.49530000  0.14990000  0.14771000  1.0 -0.0395533616
C  C159  1  0.48930000  0.10570000  0.15700000  1.0 -0.1094884425
C  C160  1  0.45680000  0.08140000  0.13830000  1.0 -0.0998016268
C  C161  1  0.43040000  0.10120000  0.11030000  1.0 -0.1299976255
C  C162  1  0.43639000  0.14530000  0.10110000  1.0 0.0828918752
C  C163  1  0.46884000  0.16970000  0.11978000  1.0 -0.1419997001
C  C164  1  0.46030000  0.13900000  0.01990000  1.0 -0.1672646671
C  C165  1  0.41910000  0.15880000  0.03270000  1.0 0.1846248526
C  C166  1  0.40560000  0.16270000  0.07040000  1.0 -0.0998016268
C  C167  1  0.36760000  0.18230000  0.08260000  1.0 0.1631058888
C  C168  1  0.35210000  0.18610000  0.12360000  1.0 -0.1299976255
C  C169  1  0.31480000  0.20530000  0.12270000  1.0 -0.1672646671
C  C170  1  0.30340000  0.21880000  0.08240000  1.0 0.2099062489
C  C171  1  0.26200000  0.23450000  0.07120000  1.0 -0.0914346853
C  C172  1  0.25140000  0.24280000  0.03300000  1.0 0.1718746364
C  C173  1  0.21160000  0.26430000  0.01860000  1.0 -0.1563727348
C  C174  1  0.65860000  0.20760000  0.17110000  1.0 0.5700188854
C  C175  1  0.70102000  0.20471000  0.14977000  1.0 -0.0203800435
C  C176  1  0.72900000  0.16970000  0.15790000  1.0 -0.1094884425
C  C177  1  0.76800000  0.16480000  0.13730000  1.0 -0.0914346853
C  C178  1  0.77910000  0.19490000  0.10850000  1.0 -0.1299976255
C  C179  1  0.75110000  0.22990000  0.10033000  1.0 0.0828918752
C  C180  1  0.71210000  0.23481000  0.12097000  1.0 -0.1299976255
C  C181  1  0.58310000  0.55781000  0.32454000  1.0 0.1718746364
C  C182  1  0.59480000  0.60420000  0.32330000  1.0 -0.1999599472
C  C183  1  0.55830000  0.62880000  0.32210000  1.0 -0.1866147233
C  C184  1  0.52147000  0.59777000  0.32422000  1.0 0.1890357926
C  C185  1  0.47680000  0.61063000  0.32538000  1.0 -0.0914346853
C  C186  1  0.46711000  0.65906000  0.32600000  1.0 0.0828918752
C  C187  1  0.47214000  0.68149000  0.36090000  1.0 -0.1546919396
C  C188  1  0.46370000  0.72641000  0.36273000  1.0 -0.0998016268
C  C189  1  0.45016000  0.74890000  0.32966000  1.0 -0.0998016268
C  C190  1  0.44513000  0.72647000  0.29476000  1.0 -0.0762821076
C  C191  1  0.45361000  0.68155000  0.29293000  1.0 -0.1419997001
C  C192  1  0.43100000  0.75120000  0.26130000  1.0 0.5785194889
C  C193  1  0.47010000  0.82330000  0.16620000  1.0 0.5357394467
C  C194  1  0.50470000  0.85010000  0.14771000  1.0 -0.0395533616
C  C195  1  0.51070000  0.89430000  0.15700000  1.0 -0.1094884425
C  C196  1  0.54320000  0.91860000  0.13830000  1.0 -0.0998016268
C  C197  1  0.56960000  0.89880000  0.11030000  1.0 -0.1299976255
C  C198  1  0.56361000  0.85470000  0.10110000  1.0 0.0828918752
C  C199  1  0.53116000  0.83030000  0.11978000  1.0 -0.1419997001
C  C200  1  0.53970000  0.86100000  0.01990000  1.0 -0.1672646671
C  C201  1  0.58090000  0.84120000  0.03270000  1.0 0.1846248526
C  C202  1  0.59440000  0.83730000  0.07040000  1.0 -0.0998016268
C  C203  1  0.63240000  0.81770000  0.08260000  1.0 0.1631058888
C  C204  1  0.64790000  0.81390000  0.12360000  1.0 -0.1299976255
C  C205  1  0.68520000  0.79470000  0.12270000  1.0 -0.1672646671
C  C206  1  0.69660000  0.78120000  0.08240000  1.0 0.2099062489
C  C207  1  0.73800000  0.76550000  0.07120000  1.0 -0.0914346853
C  C208  1  0.74860000  0.75720000  0.03300000  1.0 0.1718746364
C  C209  1  0.78840000  0.73570000  0.01860000  1.0 -0.1563727348
C  C210  1  0.34140000  0.79240000  0.17110000  1.0 0.5700188854
C  C211  1  0.29898000  0.79529000  0.14977000  1.0 -0.0203800435
C  C212  1  0.27100000  0.83030000  0.15790000  1.0 -0.1094884425
C  C213  1  0.23200000  0.83520000  0.13730000  1.0 -0.0914346853
C  C214  1  0.22090000  0.80510000  0.10850000  1.0 -0.1299976255
C  C215  1  0.24890000  0.77010000  0.10033000  1.0 0.0828918752
C  C216  1  0.28790000  0.76519000  0.12097000  1.0 -0.1299976255
C  C217  1  0.44219000  0.58310000  0.32454000  1.0 0.1718746364
C  C218  1  0.39580000  0.59480000  0.32330000  1.0 -0.1999599472
C  C219  1  0.37120000  0.55830000  0.32210000  1.0 -0.1866147233
C  C220  1  0.40223000  0.52147000  0.32422000  1.0 0.1890357926
C  C221  1  0.38937000  0.47680000  0.32538000  1.0 -0.0914346853
C  C222  1  0.34094000  0.46711000  0.32600000  1.0 0.0828918752
C  C223  1  0.31851000  0.47214000  0.36090000  1.0 -0.1546919396
C  C224  1  0.27359000  0.46370000  0.36273000  1.0 -0.0998016268
C  C225  1  0.25110000  0.45016000  0.32966000  1.0 -0.0998016268
C  C226  1  0.27353000  0.44513000  0.29476000  1.0 -0.0762821076
C  C227  1  0.31845000  0.45361000  0.29293000  1.0 -0.1419997001
C  C228  1  0.24880000  0.43100000  0.26130000  1.0 0.5785194889
C  C229  1  0.17670000  0.47010000  0.16620000  1.0 0.5357394467
C  C230  1  0.14990000  0.50470000  0.14771000  1.0 -0.0395533616
C  C231  1  0.10570000  0.51070000  0.15700000  1.0 -0.1094884425
C  C232  1  0.08140000  0.54320000  0.13830000  1.0 -0.0998016268
C  C233  1  0.10120000  0.56960000  0.11030000  1.0 -0.1299976255
C  C234  1  0.14530000  0.56361000  0.10110000  1.0 0.0828918752
C  C235  1  0.16970000  0.53116000  0.11978000  1.0 -0.1419997001
C  C236  1  0.13900000  0.53970000  0.01990000  1.0 -0.1672646671
C  C237  1  0.15880000  0.58090000  0.03270000  1.0 0.1890357926
C  C238  1  0.16270000  0.59440000  0.07040000  1.0 -0.0998016268
C  C239  1  0.18230000  0.63240000  0.08260000  1.0 0.1631058888
C  C240  1  0.18610000  0.64790000  0.12360000  1.0 -0.1299976255
C  C241  1  0.20530000  0.68520000  0.12270000  1.0 -0.1672646671
C  C242  1  0.21880000  0.69660000  0.08240000  1.0 0.2099062489
C  C243  1  0.23450000  0.73800000  0.07120000  1.0 -0.0914346853
C  C244  1  0.24280000  0.74860000  0.03300000  1.0 0.1718746364
C  C245  1  0.26430000  0.78840000  0.01860000  1.0 -0.1563727348
C  C246  1  0.20760000  0.34140000  0.17110000  1.0 0.5700188854
C  C247  1  0.20471000  0.29898000  0.14977000  1.0 -0.0203800435
C  C248  1  0.16970000  0.27100000  0.15790000  1.0 -0.1094884425
C  C249  1  0.16480000  0.23200000  0.13730000  1.0 -0.0914346853
C  C250  1  0.19490000  0.22090000  0.10850000  1.0 -0.1299976255
C  C251  1  0.22990000  0.24890000  0.10033000  1.0 0.0828918752
C  C252  1  0.23481000  0.28790000  0.12097000  1.0 -0.1299976255
C  C253  1  0.55781000  0.41690000  0.32454000  1.0 0.1718746364
C  C254  1  0.60420000  0.40520000  0.32330000  1.0 -0.1999599472
C  C255  1  0.62880000  0.44170000  0.32210000  1.0 -0.1866147233
C  C256  1  0.59777000  0.47853000  0.32422000  1.0 0.1890357926
C  C257  1  0.61063000  0.52320000  0.32538000  1.0 -0.0914346853
C  C258  1  0.65906000  0.53289000  0.32600000  1.0 0.0828918752
C  C259  1  0.68149000  0.52786000  0.36090000  1.0 -0.1546919396
C  C260  1  0.72641000  0.53630000  0.36273000  1.0 -0.0998016268
C  C261  1  0.74890000  0.54984000  0.32966000  1.0 -0.0998016268
C  C262  1  0.72647000  0.55487000  0.29476000  1.0 -0.0762821076
C  C263  1  0.68155000  0.54639000  0.29293000  1.0 -0.1419997001
C  C264  1  0.75120000  0.56900000  0.26130000  1.0 0.5785194889
C  C265  1  0.82330000  0.52990000  0.16620000  1.0 0.5357394467
C  C266  1  0.85010000  0.49530000  0.14771000  1.0 -0.0395533616
C  C267  1  0.89430000  0.48930000  0.15700000  1.0 -0.1094884425
C  C268  1  0.91860000  0.45680000  0.13830000  1.0 -0.0998016268
C  C269  1  0.89880000  0.43040000  0.11030000  1.0 -0.1299976255
C  C270  1  0.85470000  0.43639000  0.10110000  1.0 0.0828918752
C  C271  1  0.83030000  0.46884000  0.11978000  1.0 -0.1419997001
C  C272  1  0.86100000  0.46030000  0.01990000  1.0 -0.1672646671
C  C273  1  0.84120000  0.41910000  0.03270000  1.0 0.1846248526
C  C274  1  0.83730000  0.40560000  0.07040000  1.0 -0.0998016268
C  C275  1  0.81770000  0.36760000  0.08260000  1.0 0.1631058888
C  C276  1  0.81390000  0.35210000  0.12360000  1.0 -0.1299976255
C  C277  1  0.79470000  0.31480000  0.12270000  1.0 -0.1672646671
C  C278  1  0.78120000  0.30340000  0.08240000  1.0 0.2099062489
C  C279  1  0.76550000  0.26200000  0.07120000  1.0 -0.0914346853
C  C280  1  0.75720000  0.25140000  0.03300000  1.0 0.1718746364
C  C281  1  0.73570000  0.21160000  0.01860000  1.0 -0.1563727348
C  C282  1  0.79240000  0.65860000  0.17110000  1.0 0.5700188854
C  C283  1  0.79529000  0.70102000  0.14977000  1.0 -0.0203800435
C  C284  1  0.83030000  0.72900000  0.15790000  1.0 -0.1094884425
C  C285  1  0.83520000  0.76800000  0.13730000  1.0 -0.0914346853
C  C286  1  0.80510000  0.77910000  0.10850000  1.0 -0.1299976255
C  C287  1  0.77010000  0.75110000  0.10033000  1.0 0.0828918752
C  C288  1  0.76519000  0.71210000  0.12097000  1.0 -0.1299976255
C  C289  1  0.91690000  0.05781000  0.82454000  1.0 0.1718746364
C  C290  1  0.90520000  0.10420000  0.82330000  1.0 -0.1999599472
C  C291  1  0.94170000  0.12880000  0.82210000  1.0 -0.1866147233
C  C292  1  0.97853000  0.09777000  0.82422000  1.0 0.1890357926
C  C293  1  0.02320000  0.11063000  0.82538000  1.0 -0.0914346853
C  C294  1  0.03289000  0.15906000  0.82600000  1.0 0.0828918752
C  C295  1  0.02786000  0.18149000  0.86090000  1.0 -0.1546919396
C  C296  1  0.03630000  0.22641000  0.86273000  1.0 -0.0998016268
C  C297  1  0.04984000  0.24890000  0.82966000  1.0 -0.0998016268
C  C298  1  0.05487000  0.22647000  0.79476000  1.0 -0.0762821076
C  C299  1  0.04639000  0.18155000  0.79293000  1.0 -0.1419997001
C  C300  1  0.06900000  0.25120000  0.76130000  1.0 0.5785194889
C  C301  1  0.02990000  0.32330000  0.66620000  1.0 0.5357394467
C  C302  1  0.99530000  0.35010000  0.64771000  1.0 -0.0395533616
C  C303  1  0.98930000  0.39430000  0.65700000  1.0 -0.1094884425
C  C304  1  0.95680000  0.41860000  0.63830000  1.0 -0.0998016268
C  C305  1  0.93040000  0.39880000  0.61030000  1.0 -0.1299976255
C  C306  1  0.93639000  0.35470000  0.60110000  1.0 0.0828918752
C  C307  1  0.96884000  0.33030000  0.61978000  1.0 -0.1419997001
C  C308  1  0.96030000  0.36100000  0.51990000  1.0 -0.1672646671
C  C309  1  0.91910000  0.34120000  0.53270000  1.0 0.1846248526
C  C310  1  0.90560000  0.33730000  0.57040000  1.0 -0.0998016268
C  C311  1  0.86760000  0.31770000  0.58260000  1.0 0.1631058888
C  C312  1  0.85210000  0.31390000  0.62360000  1.0 -0.1299976255
C  C313  1  0.81480000  0.29470000  0.62270000  1.0 -0.1672646671
C  C314  1  0.80340000  0.28120000  0.58240000  1.0 0.2099062489
C  C315  1  0.76200000  0.26550000  0.57120000  1.0 -0.0914346853
C  C316  1  0.75140000  0.25720000  0.53300000  1.0 0.1718746364
C  C317  1  0.71160000  0.23570000  0.51860000  1.0 -0.1563727348
C  C318  1  0.15860000  0.29240000  0.67110000  1.0 0.5700188854
C  C319  1  0.20102000  0.29529000  0.64977000  1.0 -0.0203800435
C  C320  1  0.22900000  0.33030000  0.65790000  1.0 -0.1094884425
C  C321  1  0.26800000  0.33520000  0.63730000  1.0 -0.0914346853
C  C322  1  0.27910000  0.30510000  0.60850000  1.0 -0.1299976255
C  C323  1  0.25110000  0.27010000  0.60033000  1.0 0.0828918752
C  C324  1  0.21210000  0.26519000  0.62097000  1.0 -0.1299976255
C  C325  1  0.08310000  0.94219000  0.82454000  1.0 0.1718746364
C  C326  1  0.09480000  0.89580000  0.82330000  1.0 -0.1999599472
C  C327  1  0.05830000  0.87120000  0.82210000  1.0 -0.1866147233
C  C328  1  0.02147000  0.90223000  0.82422000  1.0 0.1890357926
C  C329  1  0.97680000  0.88937000  0.82538000  1.0 -0.0914346853
C  C330  1  0.96711000  0.84094000  0.82600000  1.0 0.0828918752
C  C331  1  0.97214000  0.81851000  0.86090000  1.0 -0.1546919396
C  C332  1  0.96370000  0.77359000  0.86273000  1.0 -0.0998016268
C  C333  1  0.95016000  0.75110000  0.82966000  1.0 -0.0998016268
C  C334  1  0.94513000  0.77353000  0.79476000  1.0 -0.0762821076
C  C335  1  0.95361000  0.81845000  0.79293000  1.0 -0.1419997001
C  C336  1  0.93100000  0.74880000  0.76130000  1.0 0.5785194889
C  C337  1  0.97010000  0.67670000  0.66620000  1.0 0.5357394467
C  C338  1  0.00470000  0.64990000  0.64771000  1.0 -0.0395533616
C  C339  1  0.01070000  0.60570000  0.65700000  1.0 -0.1094884425
C  C340  1  0.04320000  0.58140000  0.63830000  1.0 -0.0998016268
C  C341  1  0.06960000  0.60120000  0.61030000  1.0 -0.1299976255
C  C342  1  0.06361000  0.64530000  0.60110000  1.0 0.0828918752
C  C343  1  0.03116000  0.66970000  0.61978000  1.0 -0.1419997001
C  C344  1  0.03970000  0.63900000  0.51990000  1.0 -0.1672646671
C  C345  1  0.08090000  0.65880000  0.53270000  1.0 0.1846248526
C  C346  1  0.09440000  0.66270000  0.57040000  1.0 -0.0998016268
C  C347  1  0.13240000  0.68230000  0.58260000  1.0 0.1631058888
C  C348  1  0.14790000  0.68610000  0.62360000  1.0 -0.1299976255
C  C349  1  0.18520000  0.70530000  0.62270000  1.0 -0.1672646671
C  C350  1  0.19660000  0.71880000  0.58240000  1.0 0.2099062489
C  C351  1  0.23800000  0.73450000  0.57120000  1.0 -0.0914346853
C  C352  1  0.24860000  0.74280000  0.53300000  1.0 0.1718746364
C  C353  1  0.28840000  0.76430000  0.51860000  1.0 -0.1563727348
C  C354  1  0.84140000  0.70760000  0.67110000  1.0 0.5700188854
C  C355  1  0.79898000  0.70471000  0.64977000  1.0 -0.0203800435
C  C356  1  0.77100000  0.66970000  0.65790000  1.0 -0.1094884425
C  C357  1  0.73200000  0.66480000  0.63730000  1.0 -0.0914346853
C  C358  1  0.72090000  0.69490000  0.60850000  1.0 -0.1299976255
C  C359  1  0.74890000  0.72990000  0.60033000  1.0 0.0828918752
C  C360  1  0.78790000  0.73481000  0.62097000  1.0 -0.1299976255
C  C361  1  0.94219000  0.91690000  0.82454000  1.0 0.1718746364
C  C362  1  0.89580000  0.90520000  0.82330000  1.0 -0.1999599472
C  C363  1  0.87120000  0.94170000  0.82210000  1.0 -0.1866147233
C  C364  1  0.90223000  0.97853000  0.82422000  1.0 0.1890357926
C  C365  1  0.88937000  0.02320000  0.82538000  1.0 -0.0914346853
C  C366  1  0.84094000  0.03289000  0.82600000  1.0 0.0828918752
C  C367  1  0.81851000  0.02786000  0.86090000  1.0 -0.1546919396
C  C368  1  0.77359000  0.03630000  0.86273000  1.0 -0.0998016268
C  C369  1  0.75110000  0.04984000  0.82966000  1.0 -0.0998016268
C  C370  1  0.77353000  0.05487000  0.79476000  1.0 -0.0762821076
C  C371  1  0.81845000  0.04639000  0.79293000  1.0 -0.1419997001
C  C372  1  0.74880000  0.06900000  0.76130000  1.0 0.5785194889
C  C373  1  0.67670000  0.02990000  0.66620000  1.0 0.5357394467
C  C374  1  0.64990000  0.99530000  0.64771000  1.0 -0.0395533616
C  C375  1  0.60570000  0.98930000  0.65700000  1.0 -0.1094884425
C  C376  1  0.58140000  0.95680000  0.63830000  1.0 -0.0998016268
C  C377  1  0.60120000  0.93040000  0.61030000  1.0 -0.1299976255
C  C378  1  0.64530000  0.93639000  0.60110000  1.0 0.0828918752
C  C379  1  0.66970000  0.96884000  0.61978000  1.0 -0.1419997001
C  C380  1  0.63900000  0.96030000  0.51990000  1.0 -0.1672646671
C  C381  1  0.65880000  0.91910000  0.53270000  1.0 0.1846248526
C  C382  1  0.66270000  0.90560000  0.57040000  1.0 -0.0998016268
C  C383  1  0.68230000  0.86760000  0.58260000  1.0 0.1631058888
C  C384  1  0.68610000  0.85210000  0.62360000  1.0 -0.1299976255
C  C385  1  0.70530000  0.81480000  0.62270000  1.0 -0.1672646671
C  C386  1  0.71880000  0.80340000  0.58240000  1.0 0.2099062489
C  C387  1  0.73450000  0.76200000  0.57120000  1.0 -0.0914346853
C  C388  1  0.74280000  0.75140000  0.53300000  1.0 0.1718746364
C  C389  1  0.76430000  0.71160000  0.51860000  1.0 -0.1563727348
C  C390  1  0.70760000  0.15860000  0.67110000  1.0 0.5700188854
C  C391  1  0.70471000  0.20102000  0.64977000  1.0 -0.0203800435
C  C392  1  0.66970000  0.22900000  0.65790000  1.0 -0.1094884425
C  C393  1  0.66480000  0.26800000  0.63730000  1.0 -0.0914346853
C  C394  1  0.69490000  0.27910000  0.60850000  1.0 -0.1299976255
C  C395  1  0.72990000  0.25110000  0.60033000  1.0 0.0828918752
C  C396  1  0.73481000  0.21210000  0.62097000  1.0 -0.1299976255
C  C397  1  0.05781000  0.08310000  0.82454000  1.0 0.1718746364
C  C398  1  0.10420000  0.09480000  0.82330000  1.0 -0.1999599472
C  C399  1  0.12880000  0.05830000  0.82210000  1.0 -0.1866147233
C  C400  1  0.09777000  0.02147000  0.82422000  1.0 0.1890357926
C  C401  1  0.11063000  0.97680000  0.82538000  1.0 -0.0914346853
C  C402  1  0.15906000  0.96711000  0.82600000  1.0 0.0828918752
C  C403  1  0.18149000  0.97214000  0.86090000  1.0 -0.1546919396
C  C404  1  0.22641000  0.96370000  0.86273000  1.0 -0.0998016268
C  C405  1  0.24890000  0.95016000  0.82966000  1.0 -0.0998016268
C  C406  1  0.22647000  0.94513000  0.79476000  1.0 -0.0762821076
C  C407  1  0.18155000  0.95361000  0.79293000  1.0 -0.1419997001
C  C408  1  0.25120000  0.93100000  0.76130000  1.0 0.5785194889
C  C409  1  0.32330000  0.97010000  0.66620000  1.0 0.5357394467
C  C410  1  0.35010000  0.00470000  0.64771000  1.0 -0.0395533616
C  C411  1  0.39430000  0.01070000  0.65700000  1.0 -0.1094884425
C  C412  1  0.41860000  0.04320000  0.63830000  1.0 -0.0998016268
C  C413  1  0.39880000  0.06960000  0.61030000  1.0 -0.1299976255
C  C414  1  0.35470000  0.06361000  0.60110000  1.0 0.0828918752
C  C415  1  0.33030000  0.03116000  0.61978000  1.0 -0.1419997001
C  C416  1  0.36100000  0.03970000  0.51990000  1.0 -0.1672646671
C  C417  1  0.34120000  0.08090000  0.53270000  1.0 0.1846248526
C  C418  1  0.33730000  0.09440000  0.57040000  1.0 -0.0998016268
C  C419  1  0.31770000  0.13240000  0.58260000  1.0 0.1631058888
C  C420  1  0.31390000  0.14790000  0.62360000  1.0 -0.1299976255
C  C421  1  0.29470000  0.18520000  0.62270000  1.0 -0.1672646671
C  C422  1  0.28120000  0.19660000  0.58240000  1.0 0.2099062489
C  C423  1  0.26550000  0.23800000  0.57120000  1.0 -0.0914346853
C  C424  1  0.25720000  0.24860000  0.53300000  1.0 0.1718746364
C  C425  1  0.23570000  0.28840000  0.51860000  1.0 -0.1563727348
C  C426  1  0.29240000  0.84140000  0.67110000  1.0 0.5700188854
C  C427  1  0.29529000  0.79898000  0.64977000  1.0 -0.0203800435
C  C428  1  0.33030000  0.77100000  0.65790000  1.0 -0.1094884425
C  C429  1  0.33520000  0.73200000  0.63730000  1.0 -0.0914346853
C  C430  1  0.30510000  0.72090000  0.60850000  1.0 -0.1299976255
C  C431  1  0.27010000  0.74890000  0.60033000  1.0 0.0828918752
C  C432  1  0.26519000  0.78790000  0.62097000  1.0 -0.1299976255
C  C433  1  0.58310000  0.55781000  0.67546000  1.0 0.1718746364
C  C434  1  0.59480000  0.60420000  0.67670000  1.0 -0.1999599472
C  C435  1  0.55830000  0.62880000  0.67790000  1.0 -0.1866147233
C  C436  1  0.52147000  0.59777000  0.67578000  1.0 0.1890357926
C  C437  1  0.47680000  0.61063000  0.67462000  1.0 -0.0914346853
C  C438  1  0.46711000  0.65906000  0.67400000  1.0 0.0828918752
C  C439  1  0.47214000  0.68149000  0.63910000  1.0 -0.1546919396
C  C440  1  0.46370000  0.72641000  0.63727000  1.0 -0.0998016268
C  C441  1  0.45016000  0.74890000  0.67034000  1.0 -0.0998016268
C  C442  1  0.44513000  0.72647000  0.70524000  1.0 -0.0762821076
C  C443  1  0.45361000  0.68155000  0.70707000  1.0 -0.1419997001
C  C444  1  0.43100000  0.75120000  0.73870000  1.0 0.5785194889
C  C445  1  0.47010000  0.82330000  0.83380000  1.0 0.5357394467
C  C446  1  0.50470000  0.85010000  0.85229000  1.0 -0.0395533616
C  C447  1  0.51070000  0.89430000  0.84300000  1.0 -0.1094884425
C  C448  1  0.54320000  0.91860000  0.86170000  1.0 -0.0998016268
C  C449  1  0.56960000  0.89880000  0.88970000  1.0 -0.1299976255
C  C450  1  0.56361000  0.85470000  0.89890000  1.0 0.0828918752
C  C451  1  0.53116000  0.83030000  0.88022000  1.0 -0.1419997001
C  C452  1  0.53970000  0.86100000  0.98010000  1.0 -0.1672646671
C  C453  1  0.58090000  0.84120000  0.96730000  1.0 0.1846248526
C  C454  1  0.59440000  0.83730000  0.92960000  1.0 -0.0998016268
C  C455  1  0.63240000  0.81770000  0.91740000  1.0 0.1631058888
C  C456  1  0.64790000  0.81390000  0.87640000  1.0 -0.1299976255
C  C457  1  0.68520000  0.79470000  0.87730000  1.0 -0.1672646671
C  C458  1  0.69660000  0.78120000  0.91760000  1.0 0.2099062489
C  C459  1  0.73800000  0.76550000  0.92880000  1.0 -0.0914346853
C  C460  1  0.74860000  0.75720000  0.96700000  1.0 0.1718746364
C  C461  1  0.78840000  0.73570000  0.98140000  1.0 -0.1563727348
C  C462  1  0.34140000  0.79240000  0.82890000  1.0 0.5700188854
C  C463  1  0.29898000  0.79529000  0.85023000  1.0 -0.0203800435
C  C464  1  0.27100000  0.83030000  0.84210000  1.0 -0.1094884425
C  C465  1  0.23200000  0.83520000  0.86270000  1.0 -0.0914346853
C  C466  1  0.22090000  0.80510000  0.89150000  1.0 -0.1299976255
C  C467  1  0.24890000  0.77010000  0.89967000  1.0 0.0828918752
C  C468  1  0.28790000  0.76519000  0.87903000  1.0 -0.1299976255
C  C469  1  0.41690000  0.44219000  0.67546000  1.0 0.1718746364
C  C470  1  0.40520000  0.39580000  0.67670000  1.0 -0.1999599472
C  C471  1  0.44170000  0.37120000  0.67790000  1.0 -0.1866147233
C  C472  1  0.47853000  0.40223000  0.67578000  1.0 0.1890357926
C  C473  1  0.52320000  0.38937000  0.67462000  1.0 -0.0914346853
C  C474  1  0.53289000  0.34094000  0.67400000  1.0 0.0828918752
C  C475  1  0.52786000  0.31851000  0.63910000  1.0 -0.1546919396
C  C476  1  0.53630000  0.27359000  0.63727000  1.0 -0.0998016268
C  C477  1  0.54984000  0.25110000  0.67034000  1.0 -0.0998016268
C  C478  1  0.55487000  0.27353000  0.70524000  1.0 -0.0762821076
C  C479  1  0.54639000  0.31845000  0.70707000  1.0 -0.1419997001
C  C480  1  0.56900000  0.24880000  0.73870000  1.0 0.5785194889
C  C481  1  0.52990000  0.17670000  0.83380000  1.0 0.5357394467
C  C482  1  0.49530000  0.14990000  0.85229000  1.0 -0.0395533616
C  C483  1  0.48930000  0.10570000  0.84300000  1.0 -0.1094884425
C  C484  1  0.45680000  0.08140000  0.86170000  1.0 -0.0998016268
C  C485  1  0.43040000  0.10120000  0.88970000  1.0 -0.1299976255
C  C486  1  0.43639000  0.14530000  0.89890000  1.0 0.0828918752
C  C487  1  0.46884000  0.16970000  0.88022000  1.0 -0.1419997001
C  C488  1  0.46030000  0.13900000  0.98010000  1.0 -0.1672646671
C  C489  1  0.41910000  0.15880000  0.96730000  1.0 0.1846248526
C  C490  1  0.40560000  0.16270000  0.92960000  1.0 -0.0998016268
C  C491  1  0.36760000  0.18230000  0.91740000  1.0 0.1631058888
C  C492  1  0.35210000  0.18610000  0.87640000  1.0 -0.1299976255
C  C493  1  0.31480000  0.20530000  0.87730000  1.0 -0.1672646671
C  C494  1  0.30340000  0.21880000  0.91760000  1.0 0.2099062489
C  C495  1  0.26200000  0.23450000  0.92880000  1.0 -0.0914346853
C  C496  1  0.25140000  0.24280000  0.96700000  1.0 0.1718746364
C  C497  1  0.21160000  0.26430000  0.98140000  1.0 -0.1563727348
C  C498  1  0.65860000  0.20760000  0.82890000  1.0 0.5700188854
C  C499  1  0.70102000  0.20471000  0.85023000  1.0 -0.0203800435
C  C500  1  0.72900000  0.16970000  0.84210000  1.0 -0.1094884425
C  C501  1  0.76800000  0.16480000  0.86270000  1.0 -0.0914346853
C  C502  1  0.77910000  0.19490000  0.89150000  1.0 -0.1299976255
C  C503  1  0.75110000  0.22990000  0.89967000  1.0 0.0828918752
C  C504  1  0.71210000  0.23481000  0.87903000  1.0 -0.1299976255
C  C505  1  0.55781000  0.41690000  0.67546000  1.0 0.1718746364
C  C506  1  0.60420000  0.40520000  0.67670000  1.0 -0.1999599472
C  C507  1  0.62880000  0.44170000  0.67790000  1.0 -0.1866147233
C  C508  1  0.59777000  0.47853000  0.67578000  1.0 0.1890357926
C  C509  1  0.61063000  0.52320000  0.67462000  1.0 -0.0914346853
C  C510  1  0.65906000  0.53289000  0.67400000  1.0 0.0828918752
C  C511  1  0.68149000  0.52786000  0.63910000  1.0 -0.1546919396
C  C512  1  0.72641000  0.53630000  0.63727000  1.0 -0.0998016268
C  C513  1  0.74890000  0.54984000  0.67034000  1.0 -0.0998016268
C  C514  1  0.72647000  0.55487000  0.70524000  1.0 -0.0762821076
C  C515  1  0.68155000  0.54639000  0.70707000  1.0 -0.1419997001
C  C516  1  0.75120000  0.56900000  0.73870000  1.0 0.5785194889
C  C517  1  0.82330000  0.52990000  0.83380000  1.0 0.5357394467
C  C518  1  0.85010000  0.49530000  0.85229000  1.0 -0.0395533616
C  C519  1  0.89430000  0.48930000  0.84300000  1.0 -0.1094884425
C  C520  1  0.91860000  0.45680000  0.86170000  1.0 -0.0998016268
C  C521  1  0.89880000  0.43040000  0.88970000  1.0 -0.1299976255
C  C522  1  0.85470000  0.43639000  0.89890000  1.0 0.0828918752
C  C523  1  0.83030000  0.46884000  0.88022000  1.0 -0.1419997001
C  C524  1  0.86100000  0.46030000  0.98010000  1.0 -0.1672646671
C  C525  1  0.84120000  0.41910000  0.96730000  1.0 0.1846248526
C  C526  1  0.83730000  0.40560000  0.92960000  1.0 -0.0998016268
C  C527  1  0.81770000  0.36760000  0.91740000  1.0 0.1631058888
C  C528  1  0.81390000  0.35210000  0.87640000  1.0 -0.1299976255
C  C529  1  0.79470000  0.31480000  0.87730000  1.0 -0.1672646671
C  C530  1  0.78120000  0.30340000  0.91760000  1.0 0.2099062489
C  C531  1  0.76550000  0.26200000  0.92880000  1.0 -0.0914346853
C  C532  1  0.75720000  0.25140000  0.96700000  1.0 0.1718746364
C  C533  1  0.73570000  0.21160000  0.98140000  1.0 -0.1563727348
C  C534  1  0.79240000  0.65860000  0.82890000  1.0 0.5700188854
C  C535  1  0.79529000  0.70102000  0.85023000  1.0 -0.0203800435
C  C536  1  0.83030000  0.72900000  0.84210000  1.0 -0.1094884425
C  C537  1  0.83520000  0.76800000  0.86270000  1.0 -0.0914346853
C  C538  1  0.80510000  0.77910000  0.89150000  1.0 -0.1299976255
C  C539  1  0.77010000  0.75110000  0.89967000  1.0 0.0828918752
C  C540  1  0.76519000  0.71210000  0.87903000  1.0 -0.1299976255
C  C541  1  0.44219000  0.58310000  0.67546000  1.0 0.1718746364
C  C542  1  0.39580000  0.59480000  0.67670000  1.0 -0.1999599472
C  C543  1  0.37120000  0.55830000  0.67790000  1.0 -0.1866147233
C  C544  1  0.40223000  0.52147000  0.67578000  1.0 0.1890357926
C  C545  1  0.38937000  0.47680000  0.67462000  1.0 -0.0914346853
C  C546  1  0.34094000  0.46711000  0.67400000  1.0 0.0828918752
C  C547  1  0.31851000  0.47214000  0.63910000  1.0 -0.1546919396
C  C548  1  0.27359000  0.46370000  0.63727000  1.0 -0.0998016268
C  C549  1  0.25110000  0.45016000  0.67034000  1.0 -0.0998016268
C  C550  1  0.27353000  0.44513000  0.70524000  1.0 -0.0762821076
C  C551  1  0.31845000  0.45361000  0.70707000  1.0 -0.1419997001
C  C552  1  0.24880000  0.43100000  0.73870000  1.0 0.5785194889
C  C553  1  0.17670000  0.47010000  0.83380000  1.0 0.5357394467
C  C554  1  0.14990000  0.50470000  0.85229000  1.0 -0.0395533616
C  C555  1  0.10570000  0.51070000  0.84300000  1.0 -0.1094884425
C  C556  1  0.08140000  0.54320000  0.86170000  1.0 -0.0998016268
C  C557  1  0.10120000  0.56960000  0.88970000  1.0 -0.1299976255
C  C558  1  0.14530000  0.56361000  0.89890000  1.0 0.0828918752
C  C559  1  0.16970000  0.53116000  0.88022000  1.0 -0.1419997001
C  C560  1  0.13900000  0.53970000  0.98010000  1.0 -0.1672646671
C  C561  1  0.15880000  0.58090000  0.96730000  1.0 0.1890357926
C  C562  1  0.16270000  0.59440000  0.92960000  1.0 -0.0998016268
C  C563  1  0.18230000  0.63240000  0.91740000  1.0 0.1631058888
C  C564  1  0.18610000  0.64790000  0.87640000  1.0 -0.1299976255
C  C565  1  0.20530000  0.68520000  0.87730000  1.0 -0.1672646671
C  C566  1  0.21880000  0.69660000  0.91760000  1.0 0.2099062489
C  C567  1  0.23450000  0.73800000  0.92880000  1.0 -0.0914346853
C  C568  1  0.24280000  0.74860000  0.96700000  1.0 0.1718746364
C  C569  1  0.26430000  0.78840000  0.98140000  1.0 -0.1563727348
C  C570  1  0.20760000  0.34140000  0.82890000  1.0 0.5700188854
C  C571  1  0.20471000  0.29898000  0.85023000  1.0 -0.0203800435
C  C572  1  0.16970000  0.27100000  0.84210000  1.0 -0.1094884425
C  C573  1  0.16480000  0.23200000  0.86270000  1.0 -0.0914346853
C  C574  1  0.19490000  0.22090000  0.89150000  1.0 -0.1299976255
C  C575  1  0.22990000  0.24890000  0.89967000  1.0 0.0828918752
C  C576  1  0.23481000  0.28790000  0.87903000  1.0 -0.1299976255
C  C577  1  0.00000000  0.00000000  0.02110000  1.0 -0.0203800435
C  C578  1  0.50000000  0.50000000  0.47890000  1.0 -0.0203800435
C  C579  1  0.00000000  0.00000000  0.97890000  1.0 -0.0203800435
C  C580  1  0.50000000  0.50000000  0.52110000  1.0 -0.0203800435
C  C581  1  0.95770000  0.80070000  0.41710000  0.45 0.1088243017
C  C582  1  0.95400000  0.80210000  0.45730000  0.45 -0.1866147233
C  C583  1  0.93560000  0.76670000  0.47720000  0.45 0.1088243017
C  C584  1  0.92090000  0.73000000  0.45680000  0.45 -0.2057970552
C  C585  1  0.92460000  0.72870000  0.41660000  0.45 0.0582541009
C  C586  1  0.04230000  0.19930000  0.41710000  0.45 0.1088243017
C  C587  1  0.04600000  0.19790000  0.45730000  0.45 -0.1866147233
C  C588  1  0.06440000  0.23330000  0.47720000  0.45 0.1088243017
C  C589  1  0.07910000  0.27000000  0.45680000  0.45 -0.2057970552
C  C590  1  0.07540000  0.27130000  0.41660000  0.45 0.0582541009
C  C591  1  0.19930000  0.95770000  0.41710000  0.45 0.1088243017
C  C592  1  0.19790000  0.95400000  0.45730000  0.45 -0.1866147233
C  C593  1  0.23330000  0.93560000  0.47720000  0.45 0.1088243017
C  C594  1  0.27000000  0.92090000  0.45680000  0.45 -0.2057970552
C  C595  1  0.27130000  0.92460000  0.41660000  0.45 0.0582541009
C  C596  1  0.80070000  0.04230000  0.41710000  0.45 0.1088243017
C  C597  1  0.80210000  0.04600000  0.45730000  0.45 -0.1866147233
C  C598  1  0.76670000  0.06440000  0.47720000  0.45 0.1088243017
C  C599  1  0.73000000  0.07910000  0.45680000  0.45 -0.2057970552
C  C600  1  0.72870000  0.07540000  0.41660000  0.45 0.0582541009
C  C601  1  0.54230000  0.30070000  0.08290000  0.45 0.1088243017
C  C602  1  0.54600000  0.30210000  0.04270000  0.45 -0.1866147233
C  C603  1  0.56440000  0.26670000  0.02280000  0.45 0.1088243017
C  C604  1  0.57910000  0.23000000  0.04320000  0.45 -0.2057970552
C  C605  1  0.57540000  0.22870000  0.08340000  0.45 0.0582541009
C  C606  1  0.45770000  0.69930000  0.08290000  0.45 0.1088243017
C  C607  1  0.45400000  0.69790000  0.04270000  0.45 -0.1866147233
C  C608  1  0.43560000  0.73330000  0.02280000  0.45 0.1088243017
C  C609  1  0.42090000  0.77000000  0.04320000  0.45 -0.2057970552
C  C610  1  0.42460000  0.77130000  0.08340000  0.45 0.0582541009
C  C611  1  0.30070000  0.45770000  0.08290000  0.45 0.1088243017
C  C612  1  0.30210000  0.45400000  0.04270000  0.45 -0.1866147233
C  C613  1  0.26670000  0.43560000  0.02280000  0.45 0.1088243017
C  C614  1  0.23000000  0.42090000  0.04320000  0.45 -0.2057970552
C  C615  1  0.22870000  0.42460000  0.08340000  0.45 0.0582541009
C  C616  1  0.69930000  0.54230000  0.08290000  0.45 0.1088243017
C  C617  1  0.69790000  0.54600000  0.04270000  0.45 -0.1866147233
C  C618  1  0.73330000  0.56440000  0.02280000  0.45 0.1088243017
C  C619  1  0.77000000  0.57910000  0.04320000  0.45 -0.2057970552
C  C620  1  0.77130000  0.57540000  0.08340000  0.45 0.0582541009
C  C621  1  0.04230000  0.19930000  0.58290000  0.45 0.1088243017
C  C622  1  0.04600000  0.19790000  0.54270000  0.45 -0.1866147233
C  C623  1  0.06440000  0.23330000  0.52280000  0.45 0.1088243017
C  C624  1  0.07910000  0.27000000  0.54320000  0.45 -0.2057970552
C  C625  1  0.07540000  0.27130000  0.58340000  0.45 0.0582541009
C  C626  1  0.95770000  0.80070000  0.58290000  0.45 0.1088243017
C  C627  1  0.95400000  0.80210000  0.54270000  0.45 -0.1866147233
C  C628  1  0.93560000  0.76670000  0.52280000  0.45 0.1088243017
C  C629  1  0.92090000  0.73000000  0.54320000  0.45 -0.2057970552
C  C630  1  0.92460000  0.72870000  0.58340000  0.45 0.0582541009
C  C631  1  0.80070000  0.04230000  0.58290000  0.45 0.1088243017
C  C632  1  0.80210000  0.04600000  0.54270000  0.45 -0.1866147233
C  C633  1  0.76670000  0.06440000  0.52280000  0.45 0.1088243017
C  C634  1  0.73000000  0.07910000  0.54320000  0.45 -0.2057970552
C  C635  1  0.72870000  0.07540000  0.58340000  0.45 0.0582541009
C  C636  1  0.19930000  0.95770000  0.58290000  0.45 0.1088243017
C  C637  1  0.19790000  0.95400000  0.54270000  0.45 -0.1866147233
C  C638  1  0.23330000  0.93560000  0.52280000  0.45 0.1088243017
C  C639  1  0.27000000  0.92090000  0.54320000  0.45 -0.2057970552
C  C640  1  0.27130000  0.92460000  0.58340000  0.45 0.0582541009
C  C641  1  0.45770000  0.69930000  0.91710000  0.45 0.1088243017
C  C642  1  0.45400000  0.69790000  0.95730000  0.45 -0.1866147233
C  C643  1  0.43560000  0.73330000  0.97720000  0.45 0.1088243017
C  C644  1  0.42090000  0.77000000  0.95680000  0.45 -0.2057970552
C  C645  1  0.42460000  0.77130000  0.91660000  0.45 0.0582541009
C  C646  1  0.54230000  0.30070000  0.91710000  0.45 0.1088243017
C  C647  1  0.54600000  0.30210000  0.95730000  0.45 -0.1866147233
C  C648  1  0.56440000  0.26670000  0.97720000  0.45 0.1088243017
C  C649  1  0.57910000  0.23000000  0.95680000  0.45 -0.2057970552
C  C650  1  0.57540000  0.22870000  0.91660000  0.45 0.0582541009
C  C651  1  0.69930000  0.54230000  0.91710000  0.45 0.1088243017
C  C652  1  0.69790000  0.54600000  0.95730000  0.45 -0.1866147233
C  C653  1  0.73330000  0.56440000  0.97720000  0.45 0.1088243017
C  C654  1  0.77000000  0.57910000  0.95680000  0.45 -0.2057970552
C  C655  1  0.77130000  0.57540000  0.91660000  0.45 0.0582541009
C  C656  1  0.30070000  0.45770000  0.91710000  0.45 0.1088243017
C  C657  1  0.30210000  0.45400000  0.95730000  0.45 -0.1866147233
C  C658  1  0.26670000  0.43560000  0.97720000  0.45 0.1088243017
C  C659  1  0.23000000  0.42090000  0.95680000  0.45 -0.2057970552
C  C660  1  0.22870000  0.42460000  0.91660000  0.45 0.0582541009
C  C661  1  0.98620000  0.03380000  0.08210000  0.5 -0.0203800435
C  C662  1  0.98620000  0.03380000  0.04340000  0.5 -0.0998016268
C  C663  1  0.01380000  0.96620000  0.08210000  0.5 -0.0203800435
C  C664  1  0.01380000  0.96620000  0.04340000  0.5 -0.0998016268
C  C665  1  0.96620000  0.98620000  0.08210000  0.5 -0.0203800435
C  C666  1  0.96620000  0.98620000  0.04340000  0.5 -0.0998016268
C  C667  1  0.03380000  0.01380000  0.08210000  0.5 -0.0203800435
C  C668  1  0.03380000  0.01380000  0.04340000  0.5 -0.0998016268
C  C669  1  0.51380000  0.53380000  0.41790000  0.5 -0.0203800435
C  C670  1  0.51380000  0.53380000  0.45660000  0.5 -0.0998016268
C  C671  1  0.48620000  0.46620000  0.41790000  0.5 -0.0203800435
C  C672  1  0.48620000  0.46620000  0.45660000  0.5 -0.0998016268
C  C673  1  0.53380000  0.48620000  0.41790000  0.5 -0.0203800435
C  C674  1  0.53380000  0.48620000  0.45660000  0.5 -0.0998016268
C  C675  1  0.46620000  0.51380000  0.41790000  0.5 -0.0203800435
C  C676  1  0.46620000  0.51380000  0.45660000  0.5 -0.0998016268
C  C677  1  0.01380000  0.96620000  0.91790000  0.5 -0.0140292736
C  C678  1  0.01380000  0.96620000  0.95660000  0.5 -0.0998016268
C  C679  1  0.98620000  0.03380000  0.91790000  0.5 -0.0140292736
C  C680  1  0.98620000  0.03380000  0.95660000  0.5 -0.0998016268
C  C681  1  0.03380000  0.01380000  0.91790000  0.5 -0.0140292736
C  C682  1  0.03380000  0.01380000  0.95660000  0.5 -0.0998016268
C  C683  1  0.96620000  0.98620000  0.91790000  0.5 -0.0140292736
C  C684  1  0.96620000  0.98620000  0.95660000  0.5 -0.0998016268
C  C685  1  0.48620000  0.46620000  0.58210000  0.5 -0.0203800435
C  C686  1  0.48620000  0.46620000  0.54340000  0.5 -0.0998016268
C  C687  1  0.51380000  0.53380000  0.58210000  0.5 -0.0203800435
C  C688  1  0.51380000  0.53380000  0.54340000  0.5 -0.0998016268
C  C689  1  0.46620000  0.51380000  0.58210000  0.5 -0.0203800435
C  C690  1  0.46620000  0.51380000  0.54340000  0.5 -0.0998016268
C  C691  1  0.53380000  0.48620000  0.58210000  0.5 -0.0140292736
C  C692  1  0.53380000  0.48620000  0.54340000  0.5 -0.0998016268
N  N1  1  0.03741000  0.94377000  0.17470000  1.0 -0.3680031406
N  N2  1  0.16540000  0.70000000  0.44087000  1.0 -0.2603209129
N  N3  1  0.96259000  0.05623000  0.17470000  1.0 -0.3680031406
N  N4  1  0.83460000  0.30000000  0.44087000  1.0 -0.2603209129
N  N5  1  0.05623000  0.03741000  0.17470000  1.0 -0.3680031406
N  N6  1  0.30000000  0.16540000  0.44087000  1.0 -0.2603209129
N  N7  1  0.94377000  0.96259000  0.17470000  1.0 -0.3680031406
N  N8  1  0.70000000  0.83460000  0.44087000  1.0 -0.2603209129
N  N9  1  0.46259000  0.44377000  0.32530000  1.0 -0.3680031406
N  N10  1  0.33460000  0.20000000  0.05913000  1.0 -0.2603209129
N  N11  1  0.53741000  0.55623000  0.32530000  1.0 -0.3680031406
N  N12  1  0.66540000  0.80000000  0.05913000  1.0 -0.2603209129
N  N13  1  0.44377000  0.53741000  0.32530000  1.0 -0.3680031406
N  N14  1  0.20000000  0.66540000  0.05913000  1.0 -0.2603209129
N  N15  1  0.55623000  0.46259000  0.32530000  1.0 -0.3680031406
N  N16  1  0.80000000  0.33460000  0.05913000  1.0 -0.2603209129
N  N17  1  0.96259000  0.05623000  0.82530000  1.0 -0.3680031406
N  N18  1  0.83460000  0.30000000  0.55913000  1.0 -0.2603209129
N  N19  1  0.03741000  0.94377000  0.82530000  1.0 -0.3680031406
N  N20  1  0.16540000  0.70000000  0.55913000  1.0 -0.2603209129
N  N21  1  0.94377000  0.96259000  0.82530000  1.0 -0.3680031406
N  N22  1  0.70000000  0.83460000  0.55913000  1.0 -0.2603209129
N  N23  1  0.05623000  0.03741000  0.82530000  1.0 -0.3680031406
N  N24  1  0.30000000  0.16540000  0.55913000  1.0 -0.2603209129
N  N25  1  0.53741000  0.55623000  0.67470000  1.0 -0.3680031406
N  N26  1  0.66540000  0.80000000  0.94087000  1.0 -0.2603209129
N  N27  1  0.46259000  0.44377000  0.67470000  1.0 -0.3680031406
N  N28  1  0.33460000  0.20000000  0.94087000  1.0 -0.2603209129
N  N29  1  0.55623000  0.46259000  0.67470000  1.0 -0.3680031406
N  N30  1  0.80000000  0.33460000  0.94087000  1.0 -0.2603209129
N  N31  1  0.44377000  0.53741000  0.67470000  1.0 -0.3680031406
N  N32  1  0.20000000  0.66540000  0.94087000  1.0 -0.2603209129
N  N33  1  0.00000000  0.00000000  0.10370000  1.0 -0.1419997001
N  N34  1  0.50000000  0.50000000  0.39630000  1.0 -0.1419997001
N  N35  1  0.00000000  0.00000000  0.89630000  1.0 -0.1419997001
N  N36  1  0.50000000  0.50000000  0.60370000  1.0 -0.1419997001
N  N37  1  0.10510000  0.66930000  0.50000000  1.0 -0.2603209129
N  N38  1  0.22250000  0.73120000  0.50000000  1.0 -0.2603209129
N  N39  1  0.89490000  0.33070000  0.50000000  1.0 -0.2603209129
N  N40  1  0.77750000  0.26880000  0.50000000  1.0 -0.2603209129
N  N41  1  0.33070000  0.10510000  0.50000000  1.0 -0.2603209129
N  N42  1  0.26880000  0.22250000  0.50000000  1.0 -0.2603209129
N  N43  1  0.66930000  0.89490000  0.50000000  1.0 -0.2603209129
N  N44  1  0.73120000  0.77750000  0.50000000  1.0 -0.2603209129
N  N45  1  0.39490000  0.16930000  0.00000000  1.0 -0.2532529621
N  N46  1  0.27750000  0.23120000  0.00000000  1.0 -0.2532529621
N  N47  1  0.60510000  0.83070000  0.00000000  1.0 -0.2532529621
N  N48  1  0.72250000  0.76880000  0.00000000  1.0 -0.2603209129
N  N49  1  0.16930000  0.60510000  0.00000000  1.0 -0.2532529621
N  N50  1  0.23120000  0.72250000  0.00000000  1.0 -0.2603209129
N  N51  1  0.83070000  0.39490000  0.00000000  1.0 -0.2532529621
N  N52  1  0.76880000  0.27750000  0.00000000  1.0 -0.2532529621
N  N53  1  0.94300000  0.76400000  0.39680000  0.45 -0.1672646671
N  N54  1  0.05700000  0.23600000  0.39680000  0.45 -0.1672646671
N  N55  1  0.23600000  0.94300000  0.39680000  0.45 -0.1672646671
N  N56  1  0.76400000  0.05700000  0.39680000  0.45 -0.1672646671
N  N57  1  0.55700000  0.26400000  0.10320000  0.45 -0.1672646671
N  N58  1  0.44300000  0.73600000  0.10320000  0.45 -0.1672646671
N  N59  1  0.26400000  0.44300000  0.10320000  0.45 -0.1672646671
N  N60  1  0.73600000  0.55700000  0.10320000  0.45 -0.1672646671
N  N61  1  0.05700000  0.23600000  0.60320000  0.45 -0.1672646671
N  N62  1  0.94300000  0.76400000  0.60320000  0.45 -0.1672646671
N  N63  1  0.76400000  0.05700000  0.60320000  0.45 -0.1672646671
N  N64  1  0.23600000  0.94300000  0.60320000  0.45 -0.1672646671
N  N65  1  0.44300000  0.73600000  0.89680000  0.45 -0.1672646671
N  N66  1  0.55700000  0.26400000  0.89680000  0.45 -0.1672646671
N  N67  1  0.73600000  0.55700000  0.89680000  0.45 -0.1672646671
N  N68  1  0.26400000  0.44300000  0.89680000  0.45 -0.1672646671
O  O1  1  0.91750000  0.70980000  0.23453000  1.0 -0.5264131058
O  O2  1  0.93390000  0.76800000  0.27233000  1.0 -0.4685964726
O  O3  1  0.94790000  0.65530000  0.30737000  1.0 -0.5351383774
O  O4  1  0.96550000  0.71560000  0.34098000  1.0 -0.3913592915
O  O5  1  0.84770000  0.68150000  0.30107000  1.0 -0.509716106
O  O6  1  0.86780000  0.73570000  0.34080000  1.0 -0.4505222975
O  O7  1  0.91730000  0.82150000  0.34440000  1.0 -0.6467710481
O  O8  1  0.08250000  0.29020000  0.23453000  1.0 -0.5264131058
O  O9  1  0.06610000  0.23200000  0.27233000  1.0 -0.4685964726
O  O10  1  0.05210000  0.34470000  0.30737000  1.0 -0.5351383774
O  O11  1  0.03450000  0.28440000  0.34098000  1.0 -0.3913592915
O  O12  1  0.15230000  0.31850000  0.30107000  1.0 -0.509716106
O  O13  1  0.13220000  0.26430000  0.34080000  1.0 -0.4505222975
O  O14  1  0.08270000  0.17850000  0.34440000  1.0 -0.6467710481
O  O15  1  0.29020000  0.91750000  0.23453000  1.0 -0.5264131058
O  O16  1  0.23200000  0.93390000  0.27233000  1.0 -0.4685964726
O  O17  1  0.34470000  0.94790000  0.30737000  1.0 -0.5351383774
O  O18  1  0.28440000  0.96550000  0.34098000  1.0 -0.3913592915
O  O19  1  0.31850000  0.84770000  0.30107000  1.0 -0.509716106
O  O20  1  0.26430000  0.86780000  0.34080000  1.0 -0.4505222975
O  O21  1  0.17850000  0.91730000  0.34440000  1.0 -0.6467710481
O  O22  1  0.70980000  0.08250000  0.23453000  1.0 -0.5264131058
O  O23  1  0.76800000  0.06610000  0.27233000  1.0 -0.4685964726
O  O24  1  0.65530000  0.05210000  0.30737000  1.0 -0.5351383774
O  O25  1  0.71560000  0.03450000  0.34098000  1.0 -0.3913592915
O  O26  1  0.68150000  0.15230000  0.30107000  1.0 -0.509716106
O  O27  1  0.73570000  0.13220000  0.34080000  1.0 -0.4505222975
O  O28  1  0.82150000  0.08270000  0.34440000  1.0 -0.6445820419
O  O29  1  0.58250000  0.20980000  0.26547000  1.0 -0.5264131058
O  O30  1  0.56610000  0.26800000  0.22767000  1.0 -0.4685964726
O  O31  1  0.55210000  0.15530000  0.19263000  1.0 -0.5351383774
O  O32  1  0.53450000  0.21560000  0.15902000  1.0 -0.3913592915
O  O33  1  0.65230000  0.18150000  0.19893000  1.0 -0.509716106
O  O34  1  0.63220000  0.23570000  0.15920000  1.0 -0.4505222975
O  O35  1  0.58270000  0.32150000  0.15560000  1.0 -0.6467710481
O  O36  1  0.41750000  0.79020000  0.26547000  1.0 -0.5264131058
O  O37  1  0.43390000  0.73200000  0.22767000  1.0 -0.4685964726
O  O38  1  0.44790000  0.84470000  0.19263000  1.0 -0.5351383774
O  O39  1  0.46550000  0.78440000  0.15902000  1.0 -0.3913592915
O  O40  1  0.34770000  0.81850000  0.19893000  1.0 -0.509716106
O  O41  1  0.36780000  0.76430000  0.15920000  1.0 -0.4505222975
O  O42  1  0.41730000  0.67850000  0.15560000  1.0 -0.6467710481
O  O43  1  0.20980000  0.41750000  0.26547000  1.0 -0.5264131058
O  O44  1  0.26800000  0.43390000  0.22767000  1.0 -0.4685964726
O  O45  1  0.15530000  0.44790000  0.19263000  1.0 -0.5351383774
O  O46  1  0.21560000  0.46550000  0.15902000  1.0 -0.3913592915
O  O47  1  0.18150000  0.34770000  0.19893000  1.0 -0.509716106
O  O48  1  0.23570000  0.36780000  0.15920000  1.0 -0.4505222975
O  O49  1  0.32150000  0.41730000  0.15560000  1.0 -0.6467710481
O  O50  1  0.79020000  0.58250000  0.26547000  1.0 -0.5264131058
O  O51  1  0.73200000  0.56610000  0.22767000  1.0 -0.4685964726
O  O52  1  0.84470000  0.55210000  0.19263000  1.0 -0.5351383774
O  O53  1  0.78440000  0.53450000  0.15902000  1.0 -0.3913592915
O  O54  1  0.81850000  0.65230000  0.19893000  1.0 -0.509716106
O  O55  1  0.76430000  0.63220000  0.15920000  1.0 -0.4505222975
O  O56  1  0.67850000  0.58270000  0.15560000  1.0 -0.6467710481
O  O57  1  0.08250000  0.29020000  0.76547000  1.0 -0.5264131058
O  O58  1  0.06610000  0.23200000  0.72767000  1.0 -0.4685964726
O  O59  1  0.05210000  0.34470000  0.69263000  1.0 -0.5351383774
O  O60  1  0.03450000  0.28440000  0.65902000  1.0 -0.3913592915
O  O61  1  0.15230000  0.31850000  0.69893000  1.0 -0.509716106
O  O62  1  0.13220000  0.26430000  0.65920000  1.0 -0.4505222975
O  O63  1  0.08270000  0.17850000  0.65560000  1.0 -0.6467710481
O  O64  1  0.91750000  0.70980000  0.76547000  1.0 -0.5264131058
O  O65  1  0.93390000  0.76800000  0.72767000  1.0 -0.4685964726
O  O66  1  0.94790000  0.65530000  0.69263000  1.0 -0.5264131058
O  O67  1  0.96550000  0.71560000  0.65902000  1.0 -0.3913592915
O  O68  1  0.84770000  0.68150000  0.69893000  1.0 -0.509716106
O  O69  1  0.86780000  0.73570000  0.65920000  1.0 -0.4505222975
O  O70  1  0.91730000  0.82150000  0.65560000  1.0 -0.6467710481
O  O71  1  0.70980000  0.08250000  0.76547000  1.0 -0.5264131058
O  O72  1  0.76800000  0.06610000  0.72767000  1.0 -0.4685964726
O  O73  1  0.65530000  0.05210000  0.69263000  1.0 -0.5351383774
O  O74  1  0.71560000  0.03450000  0.65902000  1.0 -0.3913592915
O  O75  1  0.68150000  0.15230000  0.69893000  1.0 -0.509716106
O  O76  1  0.73570000  0.13220000  0.65920000  1.0 -0.4505222975
O  O77  1  0.82150000  0.08270000  0.65560000  1.0 -0.6445820419
O  O78  1  0.29020000  0.91750000  0.76547000  1.0 -0.5264131058
O  O79  1  0.23200000  0.93390000  0.72767000  1.0 -0.4685964726
O  O80  1  0.34470000  0.94790000  0.69263000  1.0 -0.5351383774
O  O81  1  0.28440000  0.96550000  0.65902000  1.0 -0.3913592915
O  O82  1  0.31850000  0.84770000  0.69893000  1.0 -0.509716106
O  O83  1  0.26430000  0.86780000  0.65920000  1.0 -0.4505222975
O  O84  1  0.17850000  0.91730000  0.65560000  1.0 -0.6467710481
O  O85  1  0.41750000  0.79020000  0.73453000  1.0 -0.5264131058
O  O86  1  0.43390000  0.73200000  0.77233000  1.0 -0.4685964726
O  O87  1  0.44790000  0.84470000  0.80737000  1.0 -0.5351383774
O  O88  1  0.46550000  0.78440000  0.84098000  1.0 -0.3913592915
O  O89  1  0.34770000  0.81850000  0.80107000  1.0 -0.509716106
O  O90  1  0.36780000  0.76430000  0.84080000  1.0 -0.4505222975
O  O91  1  0.41730000  0.67850000  0.84440000  1.0 -0.6467710481
O  O92  1  0.58250000  0.20980000  0.73453000  1.0 -0.5264131058
O  O93  1  0.56610000  0.26800000  0.77233000  1.0 -0.4685964726
O  O94  1  0.55210000  0.15530000  0.80737000  1.0 -0.5351383774
O  O95  1  0.53450000  0.21560000  0.84098000  1.0 -0.3913592915
O  O96  1  0.65230000  0.18150000  0.80107000  1.0 -0.509716106
O  O97  1  0.63220000  0.23570000  0.84080000  1.0 -0.4505222975
O  O98  1  0.58270000  0.32150000  0.84440000  1.0 -0.6467710481
O  O99  1  0.79020000  0.58250000  0.73453000  1.0 -0.5264131058
O  O100  1  0.73200000  0.56610000  0.77233000  1.0 -0.4685964726
O  O101  1  0.84470000  0.55210000  0.80737000  1.0 -0.5351383774
O  O102  1  0.78440000  0.53450000  0.84098000  1.0 -0.3913592915
O  O103  1  0.81850000  0.65230000  0.80107000  1.0 -0.509716106
O  O104  1  0.76430000  0.63220000  0.84080000  1.0 -0.4505222975
O  O105  1  0.67850000  0.58270000  0.84440000  1.0 -0.6467710481
O  O106  1  0.20980000  0.41750000  0.73453000  1.0 -0.5264131058
O  O107  1  0.26800000  0.43390000  0.77233000  1.0 -0.4685964726
O  O108  1  0.15530000  0.44790000  0.80737000  1.0 -0.5351383774
O  O109  1  0.21560000  0.46550000  0.84098000  1.0 -0.3913592915
O  O110  1  0.18150000  0.34770000  0.80107000  1.0 -0.509716106
O  O111  1  0.23570000  0.36780000  0.84080000  1.0 -0.4505222975
O  O112  1  0.32150000  0.41730000  0.84440000  1.0 -0.6467710481
O  O113  1  0.18760000  0.64080000  0.50000000  1.0 -0.3483703607
O  O114  1  0.13990000  0.76400000  0.50000000  1.0 -0.4685964726
O  O115  1  0.81240000  0.35920000  0.50000000  1.0 -0.3483703607
O  O116  1  0.86010000  0.23600000  0.50000000  1.0 -0.4685964726
O  O117  1  0.35920000  0.18760000  0.50000000  1.0 -0.3483703607
O  O118  1  0.23600000  0.13990000  0.50000000  1.0 -0.4685964726
O  O119  1  0.64080000  0.81240000  0.50000000  1.0 -0.3483703607
O  O120  1  0.76400000  0.86010000  0.50000000  1.0 -0.4685964726
O  O121  1  0.31240000  0.14080000  0.00000000  1.0 -0.3483703607
O  O122  1  0.36010000  0.26400000  0.00000000  1.0 -0.4685964726
O  O123  1  0.68760000  0.85920000  0.00000000  1.0 -0.3418590216
O  O124  1  0.63990000  0.73600000  0.00000000  1.0 -0.4826755313
O  O125  1  0.14080000  0.68760000  0.00000000  1.0 -0.3483703607
O  O126  1  0.26400000  0.63990000  0.00000000  1.0 -0.4852909533
O  O127  1  0.85920000  0.31240000  0.00000000  1.0 -0.3483703607
O  O128  1  0.73600000  0.36010000  0.00000000  1.0 -0.4685964726
O  O129  1  0.88660000  0.61340000  0.25000000  1.0 -0.8357825069
O  O130  1  0.11340000  0.38660000  0.25000000  1.0 -0.8357825069
O  O131  1  0.38660000  0.88660000  0.25000000  1.0 -0.8357825069
O  O132  1  0.61340000  0.11340000  0.25000000  1.0 -0.8357825069
O  O133  1  0.11340000  0.38660000  0.75000000  1.0 -0.8357825069
O  O134  1  0.88660000  0.61340000  0.75000000  1.0 -0.8357825069
O  O135  1  0.61340000  0.11340000  0.75000000  1.0 -0.8357825069
O  O136  1  0.38660000  0.88660000  0.75000000  1.0 -0.8357825069
O  O137  1  0.01070000  0.78660000  0.32980000  0.45 -0.1153004332
O  O138  1  0.98930000  0.21340000  0.32980000  0.45 -0.1094884425
O  O139  1  0.21340000  0.01070000  0.32980000  0.45 -0.1094884425
O  O140  1  0.78660000  0.98930000  0.32980000  0.45 -0.1094884425
O  O141  1  0.48930000  0.28660000  0.17020000  0.45 -0.1094884425
O  O142  1  0.51070000  0.71340000  0.17020000  0.45 -0.1094884425
O  O143  1  0.28660000  0.51070000  0.17020000  0.45 -0.1153004332
O  O144  1  0.71340000  0.48930000  0.17020000  0.45 -0.1094884425
O  O145  1  0.98930000  0.21340000  0.67020000  0.45 -0.1094884425
O  O146  1  0.01070000  0.78660000  0.67020000  0.45 -0.1153004332
O  O147  1  0.78660000  0.98930000  0.67020000  0.45 -0.1094884425
O  O148  1  0.21340000  0.01070000  0.67020000  0.45 -0.1094884425
O  O149  1  0.51070000  0.71340000  0.82980000  0.45 -0.1094884425
O  O150  1  0.48930000  0.28660000  0.82980000  0.45 -0.1094884425
O  O151  1  0.71340000  0.48930000  0.82980000  0.45 -0.1094884425
O  O152  1  0.28660000  0.51070000  0.82980000  0.45 -0.1094884425
