# DDEC6 charges by PACMAN v1.1 (https://github.com/mtap-research/PACMAN-charge/)
data_d0ta06830f2_29_FSR_pacman
_symmetry_space_group_name_H-M   'P 1'
_cell_length_a   45.77000000
_cell_length_b   45.77000000
_cell_length_c   45.77000000
_cell_angle_alpha   90.00000000
_cell_angle_beta   90.00000000
_cell_angle_gamma   90.00000000
_symmetry_Int_Tables_number   1
_chemical_formula_structural   FeH10C20NO5
_chemical_formula_sum   'Fe48 H480 C960 N48 O240'
_cell_volume   95883.24803300
_cell_formula_units_Z   48
loop_
 _symmetry_equiv_pos_site_id
 _symmetry_equiv_pos_as_xyz
  1  'x, y, z'
loop_
 _atom_site_type_symbol
 _atom_site_label
 _atom_site_symmetry_multiplicity
 _atom_site_fract_x
 _atom_site_fract_y
 _atom_site_fract_z
 _atom_site_occupancy
 _atom_site_charge
Fe  Fe1  1  0.35367000  0.97751000  0.96973000  1.0 1.2149092904
Fe  Fe2  1  0.14633000  0.02249000  0.46973000  1.0 1.2173292931
Fe  Fe3  1  0.64633000  0.47751000  0.53027000  1.0 1.2173292931
Fe  Fe4  1  0.85367000  0.52249000  0.03027000  1.0 1.2173292931
Fe  Fe5  1  0.96973000  0.35367000  0.97751000  1.0 1.2173292931
Fe  Fe6  1  0.46973000  0.14633000  0.02249000  1.0 1.2173292931
Fe  Fe7  1  0.53027000  0.64633000  0.47751000  1.0 1.2173292931
Fe  Fe8  1  0.03027000  0.85367000  0.52249000  1.0 1.2173292931
Fe  Fe9  1  0.97751000  0.96973000  0.35367000  1.0 1.2173292931
Fe  Fe10  1  0.02249000  0.46973000  0.14633000  1.0 1.2173292931
Fe  Fe11  1  0.47751000  0.53027000  0.64633000  1.0 1.2173292931
Fe  Fe12  1  0.52249000  0.03027000  0.85367000  1.0 1.2173292931
Fe  Fe13  1  0.64633000  0.02249000  0.03027000  1.0 1.2173292931
Fe  Fe14  1  0.85367000  0.97751000  0.53027000  1.0 1.2173292931
Fe  Fe15  1  0.35367000  0.52249000  0.46973000  1.0 1.2173292931
Fe  Fe16  1  0.14633000  0.47751000  0.96973000  1.0 1.2149092904
Fe  Fe17  1  0.03027000  0.64633000  0.02249000  1.0 1.2173292931
Fe  Fe18  1  0.53027000  0.85367000  0.97751000  1.0 1.2173292931
Fe  Fe19  1  0.46973000  0.35367000  0.52249000  1.0 1.2173292931
Fe  Fe20  1  0.96973000  0.14633000  0.47751000  1.0 1.2173292931
Fe  Fe21  1  0.02249000  0.03027000  0.64633000  1.0 1.2173292931
Fe  Fe22  1  0.97751000  0.53027000  0.85367000  1.0 1.2173292931
Fe  Fe23  1  0.52249000  0.46973000  0.35367000  1.0 1.2173292931
Fe  Fe24  1  0.47751000  0.96973000  0.14633000  1.0 1.2173292931
Fe  Fe25  1  0.29304000  0.96711000  0.95789000  1.0 1.1183709354
Fe  Fe26  1  0.20696000  0.03289000  0.45789000  1.0 1.1183709354
Fe  Fe27  1  0.70696000  0.46711000  0.54211000  1.0 1.1183709354
Fe  Fe28  1  0.79304000  0.53289000  0.04211000  1.0 1.1183709354
Fe  Fe29  1  0.95789000  0.29304000  0.96711000  1.0 1.1183709354
Fe  Fe30  1  0.45789000  0.20696000  0.03289000  1.0 1.1183709354
Fe  Fe31  1  0.54211000  0.70696000  0.46711000  1.0 1.1183709354
Fe  Fe32  1  0.04211000  0.79304000  0.53289000  1.0 1.1183709354
Fe  Fe33  1  0.96711000  0.95789000  0.29304000  1.0 1.1183709354
Fe  Fe34  1  0.03289000  0.45789000  0.20696000  1.0 1.1183709354
Fe  Fe35  1  0.46711000  0.54211000  0.70696000  1.0 1.1183709354
Fe  Fe36  1  0.53289000  0.04211000  0.79304000  1.0 1.1183709354
Fe  Fe37  1  0.70696000  0.03289000  0.04211000  1.0 1.1183709354
Fe  Fe38  1  0.79304000  0.96711000  0.54211000  1.0 1.1183709354
Fe  Fe39  1  0.29304000  0.53289000  0.45789000  1.0 1.1183709354
Fe  Fe40  1  0.20696000  0.46711000  0.95789000  1.0 1.1183709354
Fe  Fe41  1  0.04211000  0.70696000  0.03289000  1.0 1.1183709354
Fe  Fe42  1  0.54211000  0.79304000  0.96711000  1.0 1.1183709354
Fe  Fe43  1  0.45789000  0.29304000  0.53289000  1.0 1.1183709354
Fe  Fe44  1  0.95789000  0.20696000  0.46711000  1.0 1.1183709354
Fe  Fe45  1  0.03289000  0.04211000  0.70696000  1.0 1.1183709354
Fe  Fe46  1  0.96711000  0.54211000  0.79304000  1.0 1.1183709354
Fe  Fe47  1  0.53289000  0.45789000  0.29304000  1.0 1.1183709354
Fe  Fe48  1  0.46711000  0.95789000  0.20696000  1.0 1.1183709354
H  H1  1  0.34595000  0.06983000  0.98639000  1.0 0.1508326162
H  H2  1  0.15405000  0.93017000  0.48639000  1.0 0.1508326162
H  H3  1  0.65405000  0.56983000  0.51361000  1.0 0.1508326162
H  H4  1  0.84595000  0.43017000  0.01361000  1.0 0.1508326162
H  H5  1  0.98639000  0.34595000  0.06983000  1.0 0.1508326162
H  H6  1  0.48639000  0.15405000  0.93017000  1.0 0.1508326162
H  H7  1  0.51361000  0.65405000  0.56983000  1.0 0.1508326162
H  H8  1  0.01361000  0.84595000  0.43017000  1.0 0.1508326162
H  H9  1  0.06983000  0.98639000  0.34595000  1.0 0.1508326162
H  H10  1  0.93017000  0.48639000  0.15405000  1.0 0.1508326162
H  H11  1  0.56983000  0.51361000  0.65405000  1.0 0.1508326162
H  H12  1  0.43017000  0.01361000  0.84595000  1.0 0.1508326162
H  H13  1  0.65405000  0.93017000  0.01361000  1.0 0.1508326162
H  H14  1  0.84595000  0.06983000  0.51361000  1.0 0.1508326162
H  H15  1  0.34595000  0.43017000  0.48639000  1.0 0.1508326162
H  H16  1  0.15405000  0.56983000  0.98639000  1.0 0.1508326162
H  H17  1  0.01361000  0.65405000  0.93017000  1.0 0.1508326162
H  H18  1  0.51361000  0.84595000  0.06983000  1.0 0.1508326162
H  H19  1  0.48639000  0.34595000  0.43017000  1.0 0.1508326162
H  H20  1  0.98639000  0.15405000  0.56983000  1.0 0.1508326162
H  H21  1  0.93017000  0.01361000  0.65405000  1.0 0.1508326162
H  H22  1  0.06983000  0.51361000  0.84595000  1.0 0.1508326162
H  H23  1  0.43017000  0.48639000  0.34595000  1.0 0.1508326162
H  H24  1  0.56983000  0.98639000  0.15405000  1.0 0.1508326162
H  H25  1  0.25140000  0.10539000  0.97049000  1.0 0.1395479084
H  H26  1  0.24860000  0.89461000  0.47049000  1.0 0.1395479084
H  H27  1  0.74860000  0.60539000  0.52951000  1.0 0.1395479084
H  H28  1  0.75140000  0.39461000  0.02951000  1.0 0.1395479084
H  H29  1  0.97049000  0.25140000  0.10539000  1.0 0.1395479084
H  H30  1  0.47049000  0.24860000  0.89461000  1.0 0.1395479084
H  H31  1  0.52951000  0.74860000  0.60539000  1.0 0.1395479084
H  H32  1  0.02951000  0.75140000  0.39461000  1.0 0.1395479084
H  H33  1  0.10539000  0.97049000  0.25140000  1.0 0.1395479084
H  H34  1  0.89461000  0.47049000  0.24860000  1.0 0.1395479084
H  H35  1  0.60539000  0.52951000  0.74860000  1.0 0.1395479084
H  H36  1  0.39461000  0.02951000  0.75140000  1.0 0.1395479084
H  H37  1  0.74860000  0.89461000  0.02951000  1.0 0.1395479084
H  H38  1  0.75140000  0.10539000  0.52951000  1.0 0.1395479084
H  H39  1  0.25140000  0.39461000  0.47049000  1.0 0.1395479084
H  H40  1  0.24860000  0.60539000  0.97049000  1.0 0.1395479084
H  H41  1  0.02951000  0.74860000  0.89461000  1.0 0.1395479084
H  H42  1  0.52951000  0.75140000  0.10539000  1.0 0.1395479084
H  H43  1  0.47049000  0.25140000  0.39461000  1.0 0.1395479084
H  H44  1  0.97049000  0.24860000  0.60539000  1.0 0.1395479084
H  H45  1  0.89461000  0.02951000  0.74860000  1.0 0.1395479084
H  H46  1  0.10539000  0.52951000  0.75140000  1.0 0.1395479084
H  H47  1  0.39461000  0.47049000  0.25140000  1.0 0.1395479084
H  H48  1  0.60539000  0.97049000  0.24860000  1.0 0.1395479084
H  H49  1  0.26210000  0.05623000  0.96137000  1.0 0.1320860425
H  H50  1  0.23790000  0.94377000  0.46137000  1.0 0.1320860425
H  H51  1  0.73790000  0.55623000  0.53863000  1.0 0.1320860425
H  H52  1  0.76210000  0.44377000  0.03863000  1.0 0.1320860425
H  H53  1  0.96137000  0.26210000  0.05623000  1.0 0.1320860425
H  H54  1  0.46137000  0.23790000  0.94377000  1.0 0.1320860425
H  H55  1  0.53863000  0.73790000  0.55623000  1.0 0.1320860425
H  H56  1  0.03863000  0.76210000  0.44377000  1.0 0.1320860425
H  H57  1  0.05623000  0.96137000  0.26210000  1.0 0.1320860425
H  H58  1  0.94377000  0.46137000  0.23790000  1.0 0.1320860425
H  H59  1  0.55623000  0.53863000  0.73790000  1.0 0.1320860425
H  H60  1  0.44377000  0.03863000  0.76210000  1.0 0.1320860425
H  H61  1  0.73790000  0.94377000  0.03863000  1.0 0.1320860425
H  H62  1  0.76210000  0.05623000  0.53863000  1.0 0.1320860425
H  H63  1  0.26210000  0.44377000  0.46137000  1.0 0.1320860425
H  H64  1  0.23790000  0.55623000  0.96137000  1.0 0.1320860425
H  H65  1  0.03863000  0.73790000  0.94377000  1.0 0.1320860425
H  H66  1  0.53863000  0.76210000  0.05623000  1.0 0.1320860425
H  H67  1  0.46137000  0.26210000  0.44377000  1.0 0.1320860425
H  H68  1  0.96137000  0.23790000  0.55623000  1.0 0.1320860425
H  H69  1  0.94377000  0.03863000  0.73790000  1.0 0.1320860425
H  H70  1  0.05623000  0.53863000  0.76210000  1.0 0.1320860425
H  H71  1  0.44377000  0.46137000  0.26210000  1.0 0.1320860425
H  H72  1  0.55623000  0.96137000  0.23790000  1.0 0.1320860425
H  H73  1  0.37955000  0.11982000  0.00384000  1.0 0.1508326162
H  H74  1  0.12045000  0.88018000  0.50384000  1.0 0.1508326162
H  H75  1  0.62045000  0.61982000  0.49616000  1.0 0.1508326162
H  H76  1  0.87955000  0.38018000  0.99616000  1.0 0.1508326162
H  H77  1  0.00384000  0.37955000  0.11982000  1.0 0.1508326162
H  H78  1  0.50384000  0.12045000  0.88018000  1.0 0.1508326162
H  H79  1  0.49616000  0.62045000  0.61982000  1.0 0.1508326162
H  H80  1  0.99616000  0.87955000  0.38018000  1.0 0.1508326162
H  H81  1  0.11982000  0.00384000  0.37955000  1.0 0.1508326162
H  H82  1  0.88018000  0.50384000  0.12045000  1.0 0.1508326162
H  H83  1  0.61982000  0.49616000  0.62045000  1.0 0.1508326162
H  H84  1  0.38018000  0.99616000  0.87955000  1.0 0.1508326162
H  H85  1  0.62045000  0.88018000  0.99616000  1.0 0.1508326162
H  H86  1  0.87955000  0.11982000  0.49616000  1.0 0.1508326162
H  H87  1  0.37955000  0.38018000  0.50384000  1.0 0.1508326162
H  H88  1  0.12045000  0.61982000  0.00384000  1.0 0.1508326162
H  H89  1  0.99616000  0.62045000  0.88018000  1.0 0.1508326162
H  H90  1  0.49616000  0.87955000  0.11982000  1.0 0.1508326162
H  H91  1  0.50384000  0.37955000  0.38018000  1.0 0.1508326162
H  H92  1  0.00384000  0.12045000  0.61982000  1.0 0.1508326162
H  H93  1  0.88018000  0.99616000  0.62045000  1.0 0.1508326162
H  H94  1  0.11982000  0.49616000  0.87955000  1.0 0.1508326162
H  H95  1  0.38018000  0.50384000  0.37955000  1.0 0.1508326162
H  H96  1  0.61982000  0.00384000  0.12045000  1.0 0.1508326162
H  H97  1  0.31456000  0.19870000  0.00696000  1.0 0.1395479084
H  H98  1  0.18544000  0.80130000  0.50696000  1.0 0.1395479084
H  H99  1  0.68544000  0.69870000  0.49304000  1.0 0.1395479084
H  H100  1  0.81456000  0.30130000  0.99304000  1.0 0.1395479084
H  H101  1  0.00696000  0.31456000  0.19870000  1.0 0.1395479084
H  H102  1  0.50696000  0.18544000  0.80130000  1.0 0.1395479084
H  H103  1  0.49304000  0.68544000  0.69870000  1.0 0.1395479084
H  H104  1  0.99304000  0.81456000  0.30130000  1.0 0.1395479084
H  H105  1  0.19870000  0.00696000  0.31456000  1.0 0.1395479084
H  H106  1  0.80130000  0.50696000  0.18544000  1.0 0.1395479084
H  H107  1  0.69870000  0.49304000  0.68544000  1.0 0.1395479084
H  H108  1  0.30130000  0.99304000  0.81456000  1.0 0.1395479084
H  H109  1  0.68544000  0.80130000  0.99304000  1.0 0.1395479084
H  H110  1  0.81456000  0.19870000  0.49304000  1.0 0.1395479084
H  H111  1  0.31456000  0.30130000  0.50696000  1.0 0.1395479084
H  H112  1  0.18544000  0.69870000  0.00696000  1.0 0.1395479084
H  H113  1  0.99304000  0.68544000  0.80130000  1.0 0.1395479084
H  H114  1  0.49304000  0.81456000  0.19870000  1.0 0.1395479084
H  H115  1  0.50696000  0.31456000  0.30130000  1.0 0.1395479084
H  H116  1  0.00696000  0.18544000  0.69870000  1.0 0.1395479084
H  H117  1  0.80130000  0.99304000  0.68544000  1.0 0.1395479084
H  H118  1  0.19870000  0.49304000  0.81456000  1.0 0.1395479084
H  H119  1  0.30130000  0.50696000  0.31456000  1.0 0.1395479084
H  H120  1  0.69870000  0.00696000  0.18544000  1.0 0.1395479084
H  H121  1  0.36385000  0.20571000  0.01857000  1.0 0.1320860425
H  H122  1  0.13615000  0.79429000  0.51857000  1.0 0.1320860425
H  H123  1  0.63615000  0.70571000  0.48143000  1.0 0.1320860425
H  H124  1  0.86385000  0.29429000  0.98143000  1.0 0.1320860425
H  H125  1  0.01857000  0.36385000  0.20571000  1.0 0.1320860425
H  H126  1  0.51857000  0.13615000  0.79429000  1.0 0.1320860425
H  H127  1  0.48143000  0.63615000  0.70571000  1.0 0.1320860425
H  H128  1  0.98143000  0.86385000  0.29429000  1.0 0.1320860425
H  H129  1  0.20571000  0.01857000  0.36385000  1.0 0.1320860425
H  H130  1  0.79429000  0.51857000  0.13615000  1.0 0.1320860425
H  H131  1  0.70571000  0.48143000  0.63615000  1.0 0.1320860425
H  H132  1  0.29429000  0.98143000  0.86385000  1.0 0.1320860425
H  H133  1  0.63615000  0.79429000  0.98143000  1.0 0.1320860425
H  H134  1  0.86385000  0.20571000  0.48143000  1.0 0.1320860425
H  H135  1  0.36385000  0.29429000  0.51857000  1.0 0.1320860425
H  H136  1  0.13615000  0.70571000  0.01857000  1.0 0.1320860425
H  H137  1  0.98143000  0.63615000  0.79429000  1.0 0.1320860425
H  H138  1  0.48143000  0.86385000  0.20571000  1.0 0.1320860425
H  H139  1  0.51857000  0.36385000  0.29429000  1.0 0.1320860425
H  H140  1  0.01857000  0.13615000  0.70571000  1.0 0.1320860425
H  H141  1  0.79429000  0.98143000  0.63615000  1.0 0.1320860425
H  H142  1  0.20571000  0.48143000  0.86385000  1.0 0.1320860425
H  H143  1  0.29429000  0.51857000  0.36385000  1.0 0.1320860425
H  H144  1  0.70571000  0.01857000  0.13615000  1.0 0.1320860425
H  H145  1  0.38758000  0.95952000  0.11439000  1.0 0.1508326162
H  H146  1  0.11242000  0.04048000  0.61439000  1.0 0.1508326162
H  H147  1  0.61242000  0.45952000  0.38561000  1.0 0.1508326162
H  H148  1  0.88758000  0.54048000  0.88561000  1.0 0.1508326162
H  H149  1  0.11439000  0.38758000  0.95952000  1.0 0.1508326162
H  H150  1  0.61439000  0.11242000  0.04048000  1.0 0.1508326162
H  H151  1  0.38561000  0.61242000  0.45952000  1.0 0.1508326162
H  H152  1  0.88561000  0.88758000  0.54048000  1.0 0.1508326162
H  H153  1  0.95952000  0.11439000  0.38758000  1.0 0.1508326162
H  H154  1  0.04048000  0.61439000  0.11242000  1.0 0.1508326162
H  H155  1  0.45952000  0.38561000  0.61242000  1.0 0.1508326162
H  H156  1  0.54048000  0.88561000  0.88758000  1.0 0.1508326162
H  H157  1  0.61242000  0.04048000  0.88561000  1.0 0.1508326162
H  H158  1  0.88758000  0.95952000  0.38561000  1.0 0.1508326162
H  H159  1  0.38758000  0.54048000  0.61439000  1.0 0.1508326162
H  H160  1  0.11242000  0.45952000  0.11439000  1.0 0.1508326162
H  H161  1  0.88561000  0.61242000  0.04048000  1.0 0.1508326162
H  H162  1  0.38561000  0.88758000  0.95952000  1.0 0.1508326162
H  H163  1  0.61439000  0.38758000  0.54048000  1.0 0.1508326162
H  H164  1  0.11439000  0.11242000  0.45952000  1.0 0.1508326162
H  H165  1  0.04048000  0.88561000  0.61242000  1.0 0.1508326162
H  H166  1  0.95952000  0.38561000  0.88758000  1.0 0.1508326162
H  H167  1  0.54048000  0.61439000  0.38758000  1.0 0.1508326162
H  H168  1  0.45952000  0.11439000  0.11242000  1.0 0.1508326162
H  H169  1  0.32323000  0.95444000  0.19369000  1.0 0.1320860425
H  H170  1  0.17677000  0.04556000  0.69369000  1.0 0.1320860425
H  H171  1  0.67677000  0.45444000  0.30631000  1.0 0.1320860425
H  H172  1  0.82323000  0.54556000  0.80631000  1.0 0.1320860425
H  H173  1  0.19369000  0.32323000  0.95444000  1.0 0.1320860425
H  H174  1  0.69369000  0.17677000  0.04556000  1.0 0.1320860425
H  H175  1  0.30631000  0.67677000  0.45444000  1.0 0.1320860425
H  H176  1  0.80631000  0.82323000  0.54556000  1.0 0.1320860425
H  H177  1  0.95444000  0.19369000  0.32323000  1.0 0.1320860425
H  H178  1  0.04556000  0.69369000  0.17677000  1.0 0.1320860425
H  H179  1  0.45444000  0.30631000  0.67677000  1.0 0.1320860425
H  H180  1  0.54556000  0.80631000  0.82323000  1.0 0.1320860425
H  H181  1  0.67677000  0.04556000  0.80631000  1.0 0.1320860425
H  H182  1  0.82323000  0.95444000  0.30631000  1.0 0.1320860425
H  H183  1  0.32323000  0.54556000  0.69369000  1.0 0.1320860425
H  H184  1  0.17677000  0.45444000  0.19369000  1.0 0.1320860425
H  H185  1  0.80631000  0.67677000  0.04556000  1.0 0.1320860425
H  H186  1  0.30631000  0.82323000  0.95444000  1.0 0.1320860425
H  H187  1  0.69369000  0.32323000  0.54556000  1.0 0.1320860425
H  H188  1  0.19369000  0.17677000  0.45444000  1.0 0.1320860425
H  H189  1  0.04556000  0.80631000  0.67677000  1.0 0.1320860425
H  H190  1  0.95444000  0.30631000  0.82323000  1.0 0.1320860425
H  H191  1  0.54556000  0.69369000  0.32323000  1.0 0.1320860425
H  H192  1  0.45444000  0.19369000  0.17677000  1.0 0.1320860425
H  H193  1  0.37372000  0.95410000  0.20168000  1.0 0.1395479084
H  H194  1  0.12628000  0.04590000  0.70168000  1.0 0.1395479084
H  H195  1  0.62628000  0.45410000  0.29832000  1.0 0.1395479084
H  H196  1  0.87372000  0.54590000  0.79832000  1.0 0.1320860425
H  H197  1  0.20168000  0.37372000  0.95410000  1.0 0.1395479084
H  H198  1  0.70168000  0.12628000  0.04590000  1.0 0.1395479084
H  H199  1  0.29832000  0.62628000  0.45410000  1.0 0.1395479084
H  H200  1  0.79832000  0.87372000  0.54590000  1.0 0.1395479084
H  H201  1  0.95410000  0.20168000  0.37372000  1.0 0.1395479084
H  H202  1  0.04590000  0.70168000  0.12628000  1.0 0.1395479084
H  H203  1  0.45410000  0.29832000  0.62628000  1.0 0.1395479084
H  H204  1  0.54590000  0.79832000  0.87372000  1.0 0.1320860425
H  H205  1  0.62628000  0.04590000  0.79832000  1.0 0.1395479084
H  H206  1  0.87372000  0.95410000  0.29832000  1.0 0.1395479084
H  H207  1  0.37372000  0.54590000  0.70168000  1.0 0.1395479084
H  H208  1  0.12628000  0.45410000  0.20168000  1.0 0.1395479084
H  H209  1  0.79832000  0.62628000  0.04590000  1.0 0.1395479084
H  H210  1  0.29832000  0.87372000  0.95410000  1.0 0.1395479084
H  H211  1  0.70168000  0.37372000  0.54590000  1.0 0.1395479084
H  H212  1  0.20168000  0.12628000  0.45410000  1.0 0.1395479084
H  H213  1  0.04590000  0.79832000  0.62628000  1.0 0.1395479084
H  H214  1  0.95410000  0.29832000  0.87372000  1.0 0.1395479084
H  H215  1  0.54590000  0.70168000  0.37372000  1.0 0.1395479084
H  H216  1  0.45410000  0.20168000  0.12628000  1.0 0.1395479084
H  H217  1  0.26481000  0.96398000  0.04673000  1.0 0.1395479084
H  H218  1  0.23519000  0.03602000  0.54673000  1.0 0.1395479084
H  H219  1  0.73519000  0.46398000  0.45327000  1.0 0.1395479084
H  H220  1  0.76481000  0.53602000  0.95327000  1.0 0.1320860425
H  H221  1  0.04673000  0.26481000  0.96398000  1.0 0.1395479084
H  H222  1  0.54673000  0.23519000  0.03602000  1.0 0.1395479084
H  H223  1  0.45327000  0.73519000  0.46398000  1.0 0.1395479084
H  H224  1  0.95327000  0.76481000  0.53602000  1.0 0.1320860425
H  H225  1  0.96398000  0.04673000  0.26481000  1.0 0.1395479084
H  H226  1  0.03602000  0.54673000  0.23519000  1.0 0.1395479084
H  H227  1  0.46398000  0.45327000  0.73519000  1.0 0.1395479084
H  H228  1  0.53602000  0.95327000  0.76481000  1.0 0.1320860425
H  H229  1  0.73519000  0.03602000  0.95327000  1.0 0.1320860425
H  H230  1  0.76481000  0.96398000  0.45327000  1.0 0.1395479084
H  H231  1  0.26481000  0.53602000  0.54673000  1.0 0.1395479084
H  H232  1  0.23519000  0.46398000  0.04673000  1.0 0.1395479084
H  H233  1  0.95327000  0.73519000  0.03602000  1.0 0.1395479084
H  H234  1  0.45327000  0.76481000  0.96398000  1.0 0.1395479084
H  H235  1  0.54673000  0.26481000  0.53602000  1.0 0.1395479084
H  H236  1  0.04673000  0.23519000  0.46398000  1.0 0.1395479084
H  H237  1  0.03602000  0.95327000  0.73519000  1.0 0.1320860425
H  H238  1  0.96398000  0.45327000  0.76481000  1.0 0.1395479084
H  H239  1  0.53602000  0.54673000  0.26481000  1.0 0.1395479084
H  H240  1  0.46398000  0.04673000  0.23519000  1.0 0.1395479084
H  H241  1  0.25511000  0.96239000  0.09690000  1.0 0.1320860425
H  H242  1  0.24489000  0.03761000  0.59690000  1.0 0.1320860425
H  H243  1  0.74489000  0.46239000  0.40310000  1.0 0.1320860425
H  H244  1  0.75511000  0.53761000  0.90310000  1.0 0.1320860425
H  H245  1  0.09690000  0.25511000  0.96239000  1.0 0.1320860425
H  H246  1  0.59690000  0.24489000  0.03761000  1.0 0.1320860425
H  H247  1  0.40310000  0.74489000  0.46239000  1.0 0.1320860425
H  H248  1  0.90310000  0.75511000  0.53761000  1.0 0.1320860425
H  H249  1  0.96239000  0.09690000  0.25511000  1.0 0.1320860425
H  H250  1  0.03761000  0.59690000  0.24489000  1.0 0.1320860425
H  H251  1  0.46239000  0.40310000  0.74489000  1.0 0.1320860425
H  H252  1  0.53761000  0.90310000  0.75511000  1.0 0.1320860425
H  H253  1  0.74489000  0.03761000  0.90310000  1.0 0.1320860425
H  H254  1  0.75511000  0.96239000  0.40310000  1.0 0.1320860425
H  H255  1  0.25511000  0.53761000  0.59690000  1.0 0.1320860425
H  H256  1  0.24489000  0.46239000  0.09690000  1.0 0.1320860425
H  H257  1  0.90310000  0.74489000  0.03761000  1.0 0.1320860425
H  H258  1  0.40310000  0.75511000  0.96239000  1.0 0.1320860425
H  H259  1  0.59690000  0.25511000  0.53761000  1.0 0.1320860425
H  H260  1  0.09690000  0.24489000  0.46239000  1.0 0.1320860425
H  H261  1  0.03761000  0.90310000  0.74489000  1.0 0.1320860425
H  H262  1  0.96239000  0.40310000  0.75511000  1.0 0.1320860425
H  H263  1  0.53761000  0.59690000  0.25511000  1.0 0.1320860425
H  H264  1  0.46239000  0.09690000  0.24489000  1.0 0.1320860425
H  H265  1  0.35172000  0.96120000  0.06345000  1.0 0.1508326162
H  H266  1  0.14828000  0.03880000  0.56345000  1.0 0.1508326162
H  H267  1  0.64828000  0.46120000  0.43655000  1.0 0.1508326162
H  H268  1  0.85172000  0.53880000  0.93655000  1.0 0.1508326162
H  H269  1  0.06345000  0.35172000  0.96120000  1.0 0.1508326162
H  H270  1  0.56345000  0.14828000  0.03880000  1.0 0.1508326162
H  H271  1  0.43655000  0.64828000  0.46120000  1.0 0.1508326162
H  H272  1  0.93655000  0.85172000  0.53880000  1.0 0.1508326162
H  H273  1  0.96120000  0.06345000  0.35172000  1.0 0.1508326162
H  H274  1  0.03880000  0.56345000  0.14828000  1.0 0.1508326162
H  H275  1  0.46120000  0.43655000  0.64828000  1.0 0.1508326162
H  H276  1  0.53880000  0.93655000  0.85172000  1.0 0.1508326162
H  H277  1  0.64828000  0.03880000  0.93655000  1.0 0.1508326162
H  H278  1  0.85172000  0.96120000  0.43655000  1.0 0.1508326162
H  H279  1  0.35172000  0.53880000  0.56345000  1.0 0.1508326162
H  H280  1  0.14828000  0.46120000  0.06345000  1.0 0.1508326162
H  H281  1  0.93655000  0.64828000  0.03880000  1.0 0.1508326162
H  H282  1  0.43655000  0.85172000  0.96120000  1.0 0.1508326162
H  H283  1  0.56345000  0.35172000  0.53880000  1.0 0.1508326162
H  H284  1  0.06345000  0.14828000  0.46120000  1.0 0.1508326162
H  H285  1  0.03880000  0.93655000  0.64828000  1.0 0.1508326162
H  H286  1  0.96120000  0.43655000  0.85172000  1.0 0.1508326162
H  H287  1  0.53880000  0.56345000  0.35172000  1.0 0.1508326162
H  H288  1  0.46120000  0.06345000  0.14828000  1.0 0.1508326162
H  H289  1  0.21833000  0.00326000  0.17508000  1.0 0.1188916726
H  H290  1  0.28167000  0.99674000  0.67508000  1.0 0.1188916726
H  H291  1  0.78167000  0.50326000  0.32492000  1.0 0.1188916726
H  H292  1  0.71833000  0.49674000  0.82492000  1.0 0.1188916726
H  H293  1  0.17508000  0.21833000  0.00326000  1.0 0.1188916726
H  H294  1  0.67508000  0.28167000  0.99674000  1.0 0.1188916726
H  H295  1  0.32492000  0.78167000  0.50326000  1.0 0.1188916726
H  H296  1  0.82492000  0.71833000  0.49674000  1.0 0.1188916726
H  H297  1  0.00326000  0.17508000  0.21833000  1.0 0.1188916726
H  H298  1  0.99674000  0.67508000  0.28167000  1.0 0.1188916726
H  H299  1  0.50326000  0.32492000  0.78167000  1.0 0.1188916726
H  H300  1  0.49674000  0.82492000  0.71833000  1.0 0.1188916726
H  H301  1  0.78167000  0.99674000  0.82492000  1.0 0.1188916726
H  H302  1  0.71833000  0.00326000  0.32492000  1.0 0.1188916726
H  H303  1  0.21833000  0.49674000  0.67508000  1.0 0.1188916726
H  H304  1  0.28167000  0.50326000  0.17508000  1.0 0.1188916726
H  H305  1  0.82492000  0.78167000  0.99674000  1.0 0.1188916726
H  H306  1  0.32492000  0.71833000  0.00326000  1.0 0.1188916726
H  H307  1  0.67508000  0.21833000  0.49674000  1.0 0.1188916726
H  H308  1  0.17508000  0.28167000  0.50326000  1.0 0.1188916726
H  H309  1  0.99674000  0.82492000  0.78167000  1.0 0.1188916726
H  H310  1  0.00326000  0.32492000  0.71833000  1.0 0.1188916726
H  H311  1  0.49674000  0.67508000  0.21833000  1.0 0.1188916726
H  H312  1  0.50326000  0.17508000  0.28167000  1.0 0.1188916726
H  H313  1  0.25883000  0.99967000  0.14409000  1.0 0.1395479084
H  H314  1  0.24117000  0.00033000  0.64409000  1.0 0.1395479084
H  H315  1  0.74117000  0.49967000  0.35591000  1.0 0.1395479084
H  H316  1  0.75883000  0.50033000  0.85591000  1.0 0.1395479084
H  H317  1  0.14409000  0.25883000  0.99967000  1.0 0.1395479084
H  H318  1  0.64409000  0.24117000  0.00033000  1.0 0.1395479084
H  H319  1  0.35591000  0.74117000  0.49967000  1.0 0.1395479084
H  H320  1  0.85591000  0.75883000  0.50033000  1.0 0.1395479084
H  H321  1  0.99967000  0.14409000  0.25883000  1.0 0.1395479084
H  H322  1  0.00033000  0.64409000  0.24117000  1.0 0.1395479084
H  H323  1  0.49967000  0.35591000  0.74117000  1.0 0.1395479084
H  H324  1  0.50033000  0.85591000  0.75883000  1.0 0.1395479084
H  H325  1  0.74117000  0.00033000  0.85591000  1.0 0.1395479084
H  H326  1  0.75883000  0.99967000  0.35591000  1.0 0.1395479084
H  H327  1  0.25883000  0.50033000  0.64409000  1.0 0.1395479084
H  H328  1  0.24117000  0.49967000  0.14409000  1.0 0.1395479084
H  H329  1  0.85591000  0.74117000  0.00033000  1.0 0.1395479084
H  H330  1  0.35591000  0.75883000  0.99967000  1.0 0.1395479084
H  H331  1  0.64409000  0.25883000  0.50033000  1.0 0.1395479084
H  H332  1  0.14409000  0.24117000  0.49967000  1.0 0.1395479084
H  H333  1  0.00033000  0.85591000  0.74117000  1.0 0.1395479084
H  H334  1  0.99967000  0.35591000  0.75883000  1.0 0.1395479084
H  H335  1  0.50033000  0.64409000  0.25883000  1.0 0.1395479084
H  H336  1  0.49967000  0.14409000  0.24117000  1.0 0.1395479084
H  H337  1  0.27965000  0.92161000  0.18033000  1.0 0.1395479084
H  H338  1  0.22035000  0.07839000  0.68033000  1.0 0.1395479084
H  H339  1  0.72035000  0.42161000  0.31967000  1.0 0.1395479084
H  H340  1  0.77965000  0.57839000  0.81967000  1.0 0.1395479084
H  H341  1  0.18033000  0.27965000  0.92161000  1.0 0.1395479084
H  H342  1  0.68033000  0.22035000  0.07839000  1.0 0.1395479084
H  H343  1  0.31967000  0.72035000  0.42161000  1.0 0.1395479084
H  H344  1  0.81967000  0.77965000  0.57839000  1.0 0.1395479084
H  H345  1  0.92161000  0.18033000  0.27965000  1.0 0.1395479084
H  H346  1  0.07839000  0.68033000  0.22035000  1.0 0.1395479084
H  H347  1  0.42161000  0.31967000  0.72035000  1.0 0.1395479084
H  H348  1  0.57839000  0.81967000  0.77965000  1.0 0.1395479084
H  H349  1  0.72035000  0.07839000  0.81967000  1.0 0.1395479084
H  H350  1  0.77965000  0.92161000  0.31967000  1.0 0.1395479084
H  H351  1  0.27965000  0.57839000  0.68033000  1.0 0.1395479084
H  H352  1  0.22035000  0.42161000  0.18033000  1.0 0.1395479084
H  H353  1  0.81967000  0.72035000  0.07839000  1.0 0.1395479084
H  H354  1  0.31967000  0.77965000  0.92161000  1.0 0.1395479084
H  H355  1  0.68033000  0.27965000  0.57839000  1.0 0.1395479084
H  H356  1  0.18033000  0.22035000  0.42161000  1.0 0.1395479084
H  H357  1  0.07839000  0.81967000  0.72035000  1.0 0.1395479084
H  H358  1  0.92161000  0.31967000  0.77965000  1.0 0.1395479084
H  H359  1  0.57839000  0.68033000  0.27965000  1.0 0.1395479084
H  H360  1  0.42161000  0.18033000  0.22035000  1.0 0.1395479084
H  H361  1  0.23914000  0.92519000  0.21132000  1.0 0.1188916726
H  H362  1  0.26086000  0.07481000  0.71132000  1.0 0.1188916726
H  H363  1  0.76086000  0.42519000  0.28868000  1.0 0.1188916726
H  H364  1  0.73914000  0.57481000  0.78868000  1.0 0.1188916726
H  H365  1  0.21132000  0.23914000  0.92519000  1.0 0.1188916726
H  H366  1  0.71132000  0.26086000  0.07481000  1.0 0.1188916726
H  H367  1  0.28868000  0.76086000  0.42519000  1.0 0.1188916726
H  H368  1  0.78868000  0.73914000  0.57481000  1.0 0.1188916726
H  H369  1  0.92519000  0.21132000  0.23914000  1.0 0.1188916726
H  H370  1  0.07481000  0.71132000  0.26086000  1.0 0.1188916726
H  H371  1  0.42519000  0.28868000  0.76086000  1.0 0.1188916726
H  H372  1  0.57481000  0.78868000  0.73914000  1.0 0.1188916726
H  H373  1  0.76086000  0.07481000  0.78868000  1.0 0.1188916726
H  H374  1  0.73914000  0.92519000  0.28868000  1.0 0.1188916726
H  H375  1  0.23914000  0.57481000  0.71132000  1.0 0.1188916726
H  H376  1  0.26086000  0.42519000  0.21132000  1.0 0.1188916726
H  H377  1  0.78868000  0.76086000  0.07481000  1.0 0.1188916726
H  H378  1  0.28868000  0.73914000  0.92519000  1.0 0.1188916726
H  H379  1  0.71132000  0.23914000  0.57481000  1.0 0.1188916726
H  H380  1  0.21132000  0.26086000  0.42519000  1.0 0.1188916726
H  H381  1  0.07481000  0.78868000  0.76086000  1.0 0.1188916726
H  H382  1  0.92519000  0.28868000  0.73914000  1.0 0.1188916726
H  H383  1  0.57481000  0.71132000  0.23914000  1.0 0.1188916726
H  H384  1  0.42519000  0.21132000  0.26086000  1.0 0.1188916726
H  H385  1  0.28429000  0.18626000  0.94178000  1.0 0.1508326162
H  H386  1  0.21571000  0.81374000  0.44178000  1.0 0.1508326162
H  H387  1  0.71571000  0.68626000  0.55822000  1.0 0.1508326162
H  H388  1  0.78429000  0.31374000  0.05822000  1.0 0.1508326162
H  H389  1  0.94178000  0.28429000  0.18626000  1.0 0.1508326162
H  H390  1  0.44178000  0.21571000  0.81374000  1.0 0.1508326162
H  H391  1  0.55822000  0.71571000  0.68626000  1.0 0.1508326162
H  H392  1  0.05822000  0.78429000  0.31374000  1.0 0.1508326162
H  H393  1  0.18626000  0.94178000  0.28429000  1.0 0.1508326162
H  H394  1  0.81374000  0.44178000  0.21571000  1.0 0.1508326162
H  H395  1  0.68626000  0.55822000  0.71571000  1.0 0.1508326162
H  H396  1  0.31374000  0.05822000  0.78429000  1.0 0.1508326162
H  H397  1  0.71571000  0.81374000  0.05822000  1.0 0.1508326162
H  H398  1  0.78429000  0.18626000  0.55822000  1.0 0.1508326162
H  H399  1  0.28429000  0.31374000  0.44178000  1.0 0.1508326162
H  H400  1  0.21571000  0.68626000  0.94178000  1.0 0.1508326162
H  H401  1  0.05822000  0.71571000  0.81374000  1.0 0.1508326162
H  H402  1  0.55822000  0.78429000  0.18626000  1.0 0.1508326162
H  H403  1  0.44178000  0.28429000  0.31374000  1.0 0.1508326162
H  H404  1  0.94178000  0.21571000  0.68626000  1.0 0.1508326162
H  H405  1  0.81374000  0.05822000  0.71571000  1.0 0.1508326162
H  H406  1  0.18626000  0.55822000  0.78429000  1.0 0.1508326162
H  H407  1  0.31374000  0.44178000  0.28429000  1.0 0.1508326162
H  H408  1  0.68626000  0.94178000  0.21571000  1.0 0.1508326162
H  H409  1  0.24756000  0.22168000  0.93856000  1.0 0.1188916726
H  H410  1  0.25244000  0.77832000  0.43856000  1.0 0.1188916726
H  H411  1  0.75244000  0.72168000  0.56144000  1.0 0.1188916726
H  H412  1  0.74756000  0.27832000  0.06144000  1.0 0.1188916726
H  H413  1  0.93856000  0.24756000  0.22168000  1.0 0.1188916726
H  H414  1  0.43856000  0.25244000  0.77832000  1.0 0.1188916726
H  H415  1  0.56144000  0.75244000  0.72168000  1.0 0.1188916726
H  H416  1  0.06144000  0.74756000  0.27832000  1.0 0.1188916726
H  H417  1  0.22168000  0.93856000  0.24756000  1.0 0.1188916726
H  H418  1  0.77832000  0.43856000  0.25244000  1.0 0.1188916726
H  H419  1  0.72168000  0.56144000  0.75244000  1.0 0.1188916726
H  H420  1  0.27832000  0.06144000  0.74756000  1.0 0.1188916726
H  H421  1  0.75244000  0.77832000  0.06144000  1.0 0.1188916726
H  H422  1  0.74756000  0.22168000  0.56144000  1.0 0.1188916726
H  H423  1  0.24756000  0.27832000  0.43856000  1.0 0.1188916726
H  H424  1  0.25244000  0.72168000  0.93856000  1.0 0.1188916726
H  H425  1  0.06144000  0.75244000  0.77832000  1.0 0.1188916726
H  H426  1  0.56144000  0.74756000  0.22168000  1.0 0.1188916726
H  H427  1  0.43856000  0.24756000  0.27832000  1.0 0.1188916726
H  H428  1  0.93856000  0.25244000  0.72168000  1.0 0.1188916726
H  H429  1  0.77832000  0.06144000  0.75244000  1.0 0.1188916726
H  H430  1  0.22168000  0.56144000  0.74756000  1.0 0.1188916726
H  H431  1  0.27832000  0.43856000  0.24756000  1.0 0.1188916726
H  H432  1  0.72168000  0.93856000  0.25244000  1.0 0.1188916726
H  H433  1  0.20799000  0.18712000  0.00984000  1.0 0.1188916726
H  H434  1  0.29201000  0.81288000  0.50984000  1.0 0.1188916726
H  H435  1  0.79201000  0.68712000  0.49016000  1.0 0.1188916726
H  H436  1  0.70799000  0.31288000  0.99016000  1.0 0.1188916726
H  H437  1  0.00984000  0.20799000  0.18712000  1.0 0.1188916726
H  H438  1  0.50984000  0.29201000  0.81288000  1.0 0.1188916726
H  H439  1  0.49016000  0.79201000  0.68712000  1.0 0.1188916726
H  H440  1  0.99016000  0.70799000  0.31288000  1.0 0.1188916726
H  H441  1  0.18712000  0.00984000  0.20799000  1.0 0.1188916726
H  H442  1  0.81288000  0.50984000  0.29201000  1.0 0.1188916726
H  H443  1  0.68712000  0.49016000  0.79201000  1.0 0.1188916726
H  H444  1  0.31288000  0.99016000  0.70799000  1.0 0.1188916726
H  H445  1  0.79201000  0.81288000  0.99016000  1.0 0.1188916726
H  H446  1  0.70799000  0.18712000  0.49016000  1.0 0.1188916726
H  H447  1  0.20799000  0.31288000  0.50984000  1.0 0.1188916726
H  H448  1  0.29201000  0.68712000  0.00984000  1.0 0.1188916726
H  H449  1  0.99016000  0.79201000  0.81288000  1.0 0.1188916726
H  H450  1  0.49016000  0.70799000  0.18712000  1.0 0.1188916726
H  H451  1  0.50984000  0.20799000  0.31288000  1.0 0.1188916726
H  H452  1  0.00984000  0.29201000  0.68712000  1.0 0.1188916726
H  H453  1  0.81288000  0.99016000  0.79201000  1.0 0.1188916726
H  H454  1  0.18712000  0.49016000  0.70799000  1.0 0.1188916726
H  H455  1  0.31288000  0.50984000  0.20799000  1.0 0.1188916726
H  H456  1  0.68712000  0.00984000  0.29201000  1.0 0.1188916726
H  H457  1  0.24471000  0.15170000  0.01306000  1.0 0.1395479084
H  H458  1  0.25529000  0.84830000  0.51306000  1.0 0.1395479084
H  H459  1  0.75529000  0.65170000  0.48694000  1.0 0.1395479084
H  H460  1  0.74471000  0.34830000  0.98694000  1.0 0.1395479084
H  H461  1  0.01306000  0.24471000  0.15170000  1.0 0.1395479084
H  H462  1  0.51306000  0.25529000  0.84830000  1.0 0.1395479084
H  H463  1  0.48694000  0.75529000  0.65170000  1.0 0.1395479084
H  H464  1  0.98694000  0.74471000  0.34830000  1.0 0.1395479084
H  H465  1  0.15170000  0.01306000  0.24471000  1.0 0.1395479084
H  H466  1  0.84830000  0.51306000  0.25529000  1.0 0.1395479084
H  H467  1  0.65170000  0.48694000  0.75529000  1.0 0.1395479084
H  H468  1  0.34830000  0.98694000  0.74471000  1.0 0.1395479084
H  H469  1  0.75529000  0.84830000  0.98694000  1.0 0.1395479084
H  H470  1  0.74471000  0.15170000  0.48694000  1.0 0.1395479084
H  H471  1  0.24471000  0.34830000  0.51306000  1.0 0.1395479084
H  H472  1  0.25529000  0.65170000  0.01306000  1.0 0.1395479084
H  H473  1  0.98694000  0.75529000  0.84830000  1.0 0.1395479084
H  H474  1  0.48694000  0.74471000  0.15170000  1.0 0.1395479084
H  H475  1  0.51306000  0.24471000  0.34830000  1.0 0.1395479084
H  H476  1  0.01306000  0.25529000  0.65170000  1.0 0.1395479084
H  H477  1  0.84830000  0.98694000  0.75529000  1.0 0.1395479084
H  H478  1  0.15170000  0.48694000  0.74471000  1.0 0.1395479084
H  H479  1  0.34830000  0.51306000  0.24471000  1.0 0.1395479084
H  H480  1  0.65170000  0.01306000  0.25529000  1.0 0.1395479084
C  C1  1  0.30740000  0.02650000  0.97070000  1.0 0.5583031874
C  C2  1  0.19260000  0.97350000  0.47070000  1.0 0.5583031874
C  C3  1  0.69260000  0.52650000  0.52930000  1.0 0.5583031874
C  C4  1  0.80740000  0.47350000  0.02930000  1.0 0.5583031874
C  C5  1  0.97070000  0.30740000  0.02650000  1.0 0.5583031874
C  C6  1  0.47070000  0.19260000  0.97350000  1.0 0.5583031874
C  C7  1  0.52930000  0.69260000  0.52650000  1.0 0.5583031874
C  C8  1  0.02930000  0.80740000  0.47350000  1.0 0.5583031874
C  C9  1  0.02650000  0.97070000  0.30740000  1.0 0.5583031874
C  C10  1  0.97350000  0.47070000  0.19260000  1.0 0.5583031874
C  C11  1  0.52650000  0.52930000  0.69260000  1.0 0.5583031874
C  C12  1  0.47350000  0.02930000  0.80740000  1.0 0.5583031874
C  C13  1  0.69260000  0.97350000  0.02930000  1.0 0.5583031874
C  C14  1  0.80740000  0.02650000  0.52930000  1.0 0.5583031874
C  C15  1  0.30740000  0.47350000  0.47070000  1.0 0.5583031874
C  C16  1  0.19260000  0.52650000  0.97070000  1.0 0.5583031874
C  C17  1  0.02930000  0.69260000  0.97350000  1.0 0.5583031874
C  C18  1  0.52930000  0.80740000  0.02650000  1.0 0.5583031874
C  C19  1  0.47070000  0.30740000  0.47350000  1.0 0.5583031874
C  C20  1  0.97070000  0.19260000  0.52650000  1.0 0.5583031874
C  C21  1  0.97350000  0.02930000  0.69260000  1.0 0.5583031874
C  C22  1  0.02650000  0.52930000  0.80740000  1.0 0.5583031874
C  C23  1  0.47350000  0.47070000  0.30740000  1.0 0.5583031874
C  C24  1  0.52650000  0.97070000  0.19260000  1.0 0.5583031874
C  C25  1  0.30503000  0.05841000  0.97302000  1.0 -0.0409376433
C  C26  1  0.19497000  0.94159000  0.47302000  1.0 -0.0409376433
C  C27  1  0.69497000  0.55841000  0.52698000  1.0 -0.0409376433
C  C28  1  0.80503000  0.44159000  0.02698000  1.0 -0.0409376433
C  C29  1  0.97302000  0.30503000  0.05841000  1.0 -0.0409376433
C  C30  1  0.47302000  0.19497000  0.94159000  1.0 -0.0409376433
C  C31  1  0.52698000  0.69497000  0.55841000  1.0 -0.0409376433
C  C32  1  0.02698000  0.80503000  0.44159000  1.0 -0.0409376433
C  C33  1  0.05841000  0.97302000  0.30503000  1.0 -0.0409376433
C  C34  1  0.94159000  0.47302000  0.19497000  1.0 -0.0409376433
C  C35  1  0.55841000  0.52698000  0.69497000  1.0 -0.0409376433
C  C36  1  0.44159000  0.02698000  0.80503000  1.0 -0.0409376433
C  C37  1  0.69497000  0.94159000  0.02698000  1.0 -0.0409376433
C  C38  1  0.80503000  0.05841000  0.52698000  1.0 -0.0409376433
C  C39  1  0.30503000  0.44159000  0.47302000  1.0 -0.0409376433
C  C40  1  0.19497000  0.55841000  0.97302000  1.0 -0.0409376433
C  C41  1  0.02698000  0.69497000  0.94159000  1.0 -0.0409376433
C  C42  1  0.52698000  0.80503000  0.05841000  1.0 -0.0409376433
C  C43  1  0.47302000  0.30503000  0.44159000  1.0 -0.0409376433
C  C44  1  0.97302000  0.19497000  0.55841000  1.0 -0.0409376433
C  C45  1  0.94159000  0.02698000  0.69497000  1.0 -0.0409376433
C  C46  1  0.05841000  0.52698000  0.80503000  1.0 -0.0409376433
C  C47  1  0.44159000  0.47302000  0.30503000  1.0 -0.0409376433
C  C48  1  0.55841000  0.97302000  0.19497000  1.0 -0.0409376433
C  C49  1  0.32675000  0.07705000  0.98316000  1.0 -0.1071585905
C  C50  1  0.17325000  0.92295000  0.48316000  1.0 -0.1071585905
C  C51  1  0.67325000  0.57705000  0.51684000  1.0 -0.1071585905
C  C52  1  0.82675000  0.42295000  0.01684000  1.0 -0.1071585905
C  C53  1  0.98316000  0.32675000  0.07705000  1.0 -0.1071585905
C  C54  1  0.48316000  0.17325000  0.92295000  1.0 -0.1071585905
C  C55  1  0.51684000  0.67325000  0.57705000  1.0 -0.1071585905
C  C56  1  0.01684000  0.82675000  0.42295000  1.0 -0.1071585905
C  C57  1  0.07705000  0.98316000  0.32675000  1.0 -0.1071585905
C  C58  1  0.92295000  0.48316000  0.17325000  1.0 -0.1071585905
C  C59  1  0.57705000  0.51684000  0.67325000  1.0 -0.1071585905
C  C60  1  0.42295000  0.01684000  0.82675000  1.0 -0.1071585905
C  C61  1  0.67325000  0.92295000  0.01684000  1.0 -0.1071585905
C  C62  1  0.82675000  0.07705000  0.51684000  1.0 -0.1071585905
C  C63  1  0.32675000  0.42295000  0.48316000  1.0 -0.1071585905
C  C64  1  0.17325000  0.57705000  0.98316000  1.0 -0.1071585905
C  C65  1  0.01684000  0.67325000  0.92295000  1.0 -0.1071585905
C  C66  1  0.51684000  0.82675000  0.07705000  1.0 -0.1071585905
C  C67  1  0.48316000  0.32675000  0.42295000  1.0 -0.1071585905
C  C68  1  0.98316000  0.17325000  0.57705000  1.0 -0.1071585905
C  C69  1  0.92295000  0.01684000  0.67325000  1.0 -0.1071585905
C  C70  1  0.07705000  0.51684000  0.82675000  1.0 -0.1071585905
C  C71  1  0.42295000  0.48316000  0.32675000  1.0 -0.1071585905
C  C72  1  0.57705000  0.98316000  0.17325000  1.0 -0.1071585905
C  C73  1  0.32040000  0.10625000  0.98858000  1.0 -0.0154694663
C  C74  1  0.17960000  0.89375000  0.48858000  1.0 -0.0154694663
C  C75  1  0.67960000  0.60625000  0.51142000  1.0 -0.0154694663
C  C76  1  0.82040000  0.39375000  0.01142000  1.0 -0.0154694663
C  C77  1  0.98858000  0.32040000  0.10625000  1.0 -0.0154694663
C  C78  1  0.48858000  0.17960000  0.89375000  1.0 -0.0154694663
C  C79  1  0.51142000  0.67960000  0.60625000  1.0 -0.0154694663
C  C80  1  0.01142000  0.82040000  0.39375000  1.0 -0.0154694663
C  C81  1  0.10625000  0.98858000  0.32040000  1.0 -0.0154694663
C  C82  1  0.89375000  0.48858000  0.17960000  1.0 -0.0154694663
C  C83  1  0.60625000  0.51142000  0.67960000  1.0 -0.0154694663
C  C84  1  0.39375000  0.01142000  0.82040000  1.0 -0.0154694663
C  C85  1  0.67960000  0.89375000  0.01142000  1.0 -0.0154694663
C  C86  1  0.82040000  0.10625000  0.51142000  1.0 -0.0154694663
C  C87  1  0.32040000  0.39375000  0.48858000  1.0 -0.0154694663
C  C88  1  0.17960000  0.60625000  0.98858000  1.0 -0.0154694663
C  C89  1  0.01142000  0.67960000  0.89375000  1.0 -0.0154694663
C  C90  1  0.51142000  0.82040000  0.10625000  1.0 -0.0154694663
C  C91  1  0.48858000  0.32040000  0.39375000  1.0 -0.0154694663
C  C92  1  0.98858000  0.17960000  0.60625000  1.0 -0.0154694663
C  C93  1  0.89375000  0.01142000  0.67960000  1.0 -0.0154694663
C  C94  1  0.10625000  0.51142000  0.82040000  1.0 -0.0154694663
C  C95  1  0.39375000  0.48858000  0.32040000  1.0 -0.0154694663
C  C96  1  0.60625000  0.98858000  0.17960000  1.0 -0.0154694663
C  C97  1  0.29232000  0.11681000  0.98390000  1.0 0.1188916726
C  C98  1  0.20768000  0.88319000  0.48390000  1.0 0.1188916726
C  C99  1  0.70768000  0.61681000  0.51610000  1.0 0.1188916726
C  C100  1  0.79232000  0.38319000  0.01610000  1.0 0.1188916726
C  C101  1  0.98390000  0.29232000  0.11681000  1.0 0.1188916726
C  C102  1  0.48390000  0.20768000  0.88319000  1.0 0.1188916726
C  C103  1  0.51610000  0.70768000  0.61681000  1.0 0.1188916726
C  C104  1  0.01610000  0.79232000  0.38319000  1.0 0.1188916726
C  C105  1  0.11681000  0.98390000  0.29232000  1.0 0.1188916726
C  C106  1  0.88319000  0.48390000  0.20768000  1.0 0.1188916726
C  C107  1  0.61681000  0.51610000  0.70768000  1.0 0.1188916726
C  C108  1  0.38319000  0.01610000  0.79232000  1.0 0.1188916726
C  C109  1  0.70768000  0.88319000  0.01610000  1.0 0.1188916726
C  C110  1  0.79232000  0.11681000  0.51610000  1.0 0.1188916726
C  C111  1  0.29232000  0.38319000  0.48390000  1.0 0.1188916726
C  C112  1  0.20768000  0.61681000  0.98390000  1.0 0.1188916726
C  C113  1  0.01610000  0.70768000  0.88319000  1.0 0.1188916726
C  C114  1  0.51610000  0.79232000  0.11681000  1.0 0.1188916726
C  C115  1  0.48390000  0.29232000  0.38319000  1.0 0.1188916726
C  C116  1  0.98390000  0.20768000  0.61681000  1.0 0.1188916726
C  C117  1  0.88319000  0.01610000  0.70768000  1.0 0.1188916726
C  C118  1  0.11681000  0.51610000  0.79232000  1.0 0.1188916726
C  C119  1  0.38319000  0.48390000  0.29232000  1.0 0.1188916726
C  C120  1  0.61681000  0.98390000  0.20768000  1.0 0.1188916726
C  C121  1  0.27060000  0.09817000  0.97370000  1.0 -0.1906632718
C  C122  1  0.22940000  0.90183000  0.47370000  1.0 -0.1906632718
C  C123  1  0.72940000  0.59817000  0.52630000  1.0 -0.1906632718
C  C124  1  0.77060000  0.40183000  0.02630000  1.0 -0.1906632718
C  C125  1  0.97370000  0.27060000  0.09817000  1.0 -0.1906632718
C  C126  1  0.47370000  0.22940000  0.90183000  1.0 -0.1906632718
C  C127  1  0.52630000  0.72940000  0.59817000  1.0 -0.1906632718
C  C128  1  0.02630000  0.77060000  0.40183000  1.0 -0.1906632718
C  C129  1  0.09817000  0.97370000  0.27060000  1.0 -0.1906632718
C  C130  1  0.90183000  0.47370000  0.22940000  1.0 -0.1906632718
C  C131  1  0.59817000  0.52630000  0.72940000  1.0 -0.1906632718
C  C132  1  0.40183000  0.02630000  0.77060000  1.0 -0.1906632718
C  C133  1  0.72940000  0.90183000  0.02630000  1.0 -0.1906632718
C  C134  1  0.77060000  0.09817000  0.52630000  1.0 -0.1906632718
C  C135  1  0.27060000  0.40183000  0.47370000  1.0 -0.1906632718
C  C136  1  0.22940000  0.59817000  0.97370000  1.0 -0.1906632718
C  C137  1  0.02630000  0.72940000  0.90183000  1.0 -0.1906632718
C  C138  1  0.52630000  0.77060000  0.09817000  1.0 -0.1906632718
C  C139  1  0.47370000  0.27060000  0.40183000  1.0 -0.1906632718
C  C140  1  0.97370000  0.22940000  0.59817000  1.0 -0.1906632718
C  C141  1  0.90183000  0.02630000  0.72940000  1.0 -0.1906632718
C  C142  1  0.09817000  0.52630000  0.77060000  1.0 -0.1906632718
C  C143  1  0.40183000  0.47370000  0.27060000  1.0 -0.1906632718
C  C144  1  0.59817000  0.97370000  0.22940000  1.0 -0.1906632718
C  C145  1  0.27695000  0.06897000  0.96830000  1.0 -0.0791354768
C  C146  1  0.22305000  0.93103000  0.46830000  1.0 -0.0791354768
C  C147  1  0.72305000  0.56897000  0.53170000  1.0 -0.0791354768
C  C148  1  0.77695000  0.43103000  0.03170000  1.0 -0.0791354768
C  C149  1  0.96830000  0.27695000  0.06897000  1.0 -0.0791354768
C  C150  1  0.46830000  0.22305000  0.93103000  1.0 -0.0791354768
C  C151  1  0.53170000  0.72305000  0.56897000  1.0 -0.0791354768
C  C152  1  0.03170000  0.77695000  0.43103000  1.0 -0.0791354768
C  C153  1  0.06897000  0.96830000  0.27695000  1.0 -0.0791354768
C  C154  1  0.93103000  0.46830000  0.22305000  1.0 -0.0791354768
C  C155  1  0.56897000  0.53170000  0.72305000  1.0 -0.0791354768
C  C156  1  0.43103000  0.03170000  0.77695000  1.0 -0.0791354768
C  C157  1  0.72305000  0.93103000  0.03170000  1.0 -0.0791354768
C  C158  1  0.77695000  0.06897000  0.53170000  1.0 -0.0791354768
C  C159  1  0.27695000  0.43103000  0.46830000  1.0 -0.0791354768
C  C160  1  0.22305000  0.56897000  0.96830000  1.0 -0.0791354768
C  C161  1  0.03170000  0.72305000  0.93103000  1.0 -0.0791354768
C  C162  1  0.53170000  0.77695000  0.06897000  1.0 -0.0791354768
C  C163  1  0.46830000  0.27695000  0.43103000  1.0 -0.0791354768
C  C164  1  0.96830000  0.22305000  0.56897000  1.0 -0.0791354768
C  C165  1  0.93103000  0.03170000  0.72305000  1.0 -0.0791354768
C  C166  1  0.06897000  0.53170000  0.77695000  1.0 -0.0791354768
C  C167  1  0.43103000  0.46830000  0.27695000  1.0 -0.0791354768
C  C168  1  0.56897000  0.96830000  0.22305000  1.0 -0.0791354768
C  C169  1  0.37633000  0.16340000  0.01230000  1.0 -0.1002897244
C  C170  1  0.12367000  0.83660000  0.51230000  1.0 -0.1002897244
C  C171  1  0.62367000  0.66340000  0.48770000  1.0 -0.1002897244
C  C172  1  0.87633000  0.33660000  0.98770000  1.0 -0.1002897244
C  C173  1  0.01230000  0.37633000  0.16340000  1.0 -0.1002897244
C  C174  1  0.51230000  0.12367000  0.83660000  1.0 -0.1002897244
C  C175  1  0.48770000  0.62367000  0.66340000  1.0 -0.1002897244
C  C176  1  0.98770000  0.87633000  0.33660000  1.0 -0.1002897244
C  C177  1  0.16340000  0.01230000  0.37633000  1.0 -0.1002897244
C  C178  1  0.83660000  0.51230000  0.12367000  1.0 -0.1002897244
C  C179  1  0.66340000  0.48770000  0.62367000  1.0 -0.1002897244
C  C180  1  0.33660000  0.98770000  0.87633000  1.0 -0.1002897244
C  C181  1  0.62367000  0.83660000  0.98770000  1.0 -0.1002897244
C  C182  1  0.87633000  0.16340000  0.48770000  1.0 -0.1002897244
C  C183  1  0.37633000  0.33660000  0.51230000  1.0 -0.1002897244
C  C184  1  0.12367000  0.66340000  0.01230000  1.0 -0.1002897244
C  C185  1  0.98770000  0.62367000  0.83660000  1.0 -0.1002897244
C  C186  1  0.48770000  0.87633000  0.16340000  1.0 -0.1002897244
C  C187  1  0.51230000  0.37633000  0.33660000  1.0 -0.1002897244
C  C188  1  0.01230000  0.12367000  0.66340000  1.0 -0.1002897244
C  C189  1  0.83660000  0.98770000  0.62367000  1.0 -0.1002897244
C  C190  1  0.16340000  0.48770000  0.87633000  1.0 -0.1002897244
C  C191  1  0.33660000  0.51230000  0.37633000  1.0 -0.1002897244
C  C192  1  0.66340000  0.01230000  0.12367000  1.0 -0.1002897244
C  C193  1  0.36636000  0.13583000  0.00448000  1.0 -0.0791354768
C  C194  1  0.13364000  0.86417000  0.50448000  1.0 -0.0791354768
C  C195  1  0.63364000  0.63583000  0.49552000  1.0 -0.0791354768
C  C196  1  0.86636000  0.36417000  0.99552000  1.0 -0.0791354768
C  C197  1  0.00448000  0.36636000  0.13583000  1.0 -0.0791354768
C  C198  1  0.50448000  0.13364000  0.86417000  1.0 -0.0791354768
C  C199  1  0.49552000  0.63364000  0.63583000  1.0 -0.0791354768
C  C200  1  0.99552000  0.86636000  0.36417000  1.0 -0.0791354768
C  C201  1  0.13583000  0.00448000  0.36636000  1.0 -0.0791354768
C  C202  1  0.86417000  0.50448000  0.13364000  1.0 -0.0791354768
C  C203  1  0.63583000  0.49552000  0.63364000  1.0 -0.0791354768
C  C204  1  0.36417000  0.99552000  0.86636000  1.0 -0.0791354768
C  C205  1  0.63364000  0.86417000  0.99552000  1.0 -0.0791354768
C  C206  1  0.86636000  0.13583000  0.49552000  1.0 -0.0791354768
C  C207  1  0.36636000  0.36417000  0.50448000  1.0 -0.0791354768
C  C208  1  0.13364000  0.63583000  0.00448000  1.0 -0.0791354768
C  C209  1  0.99552000  0.63364000  0.86417000  1.0 -0.0791354768
C  C210  1  0.49552000  0.86636000  0.13583000  1.0 -0.0791354768
C  C211  1  0.50448000  0.36636000  0.36417000  1.0 -0.0791354768
C  C212  1  0.00448000  0.13364000  0.63583000  1.0 -0.0791354768
C  C213  1  0.86417000  0.99552000  0.63364000  1.0 -0.0791354768
C  C214  1  0.13583000  0.49552000  0.86636000  1.0 -0.0791354768
C  C215  1  0.36417000  0.50448000  0.36636000  1.0 -0.0791354768
C  C216  1  0.63583000  0.00448000  0.13364000  1.0 -0.0791354768
C  C217  1  0.33707000  0.13166000  0.99758000  1.0 -0.0409376433
C  C218  1  0.16293000  0.86834000  0.49758000  1.0 -0.0409376433
C  C219  1  0.66293000  0.63166000  0.50242000  1.0 -0.0409376433
C  C220  1  0.83707000  0.36834000  0.00242000  1.0 -0.0409376433
C  C221  1  0.99758000  0.33707000  0.13166000  1.0 -0.0409376433
C  C222  1  0.49758000  0.16293000  0.86834000  1.0 -0.0409376433
C  C223  1  0.50242000  0.66293000  0.63166000  1.0 -0.0409376433
C  C224  1  0.00242000  0.83707000  0.36834000  1.0 -0.0409376433
C  C225  1  0.13166000  0.99758000  0.33707000  1.0 -0.0409376433
C  C226  1  0.86834000  0.49758000  0.16293000  1.0 -0.0409376433
C  C227  1  0.63166000  0.50242000  0.66293000  1.0 -0.0409376433
C  C228  1  0.36834000  0.00242000  0.83707000  1.0 -0.0409376433
C  C229  1  0.66293000  0.86834000  0.00242000  1.0 -0.0409376433
C  C230  1  0.83707000  0.13166000  0.50242000  1.0 -0.0290065421
C  C231  1  0.33707000  0.36834000  0.49758000  1.0 -0.0409376433
C  C232  1  0.16293000  0.63166000  0.99758000  1.0 -0.0409376433
C  C233  1  0.00242000  0.66293000  0.86834000  1.0 -0.0409376433
C  C234  1  0.50242000  0.83707000  0.13166000  1.0 -0.0290065421
C  C235  1  0.49758000  0.33707000  0.36834000  1.0 -0.0409376433
C  C236  1  0.99758000  0.16293000  0.63166000  1.0 -0.0409376433
C  C237  1  0.86834000  0.00242000  0.66293000  1.0 -0.0409376433
C  C238  1  0.13166000  0.50242000  0.83707000  1.0 -0.0290065421
C  C239  1  0.36834000  0.49758000  0.33707000  1.0 -0.0409376433
C  C240  1  0.63166000  0.99758000  0.16293000  1.0 -0.0409376433
C  C241  1  0.31777000  0.15509000  0.99850000  1.0 0.1683939578
C  C242  1  0.18223000  0.84491000  0.49850000  1.0 0.1683939578
C  C243  1  0.68223000  0.65509000  0.50150000  1.0 0.1683939578
C  C244  1  0.81777000  0.34491000  0.00150000  1.0 0.1683939578
C  C245  1  0.99850000  0.31777000  0.15509000  1.0 0.1683939578
C  C246  1  0.49850000  0.18223000  0.84491000  1.0 0.1683939578
C  C247  1  0.50150000  0.68223000  0.65509000  1.0 0.1683939578
C  C248  1  0.00150000  0.81777000  0.34491000  1.0 0.1683939578
C  C249  1  0.15509000  0.99850000  0.31777000  1.0 0.1683939578
C  C250  1  0.84491000  0.49850000  0.18223000  1.0 0.1683939578
C  C251  1  0.65509000  0.50150000  0.68223000  1.0 0.1683939578
C  C252  1  0.34491000  0.00150000  0.81777000  1.0 0.1683939578
C  C253  1  0.68223000  0.84491000  0.00150000  1.0 0.1683939578
C  C254  1  0.81777000  0.15509000  0.50150000  1.0 0.1683939578
C  C255  1  0.31777000  0.34491000  0.49850000  1.0 0.1683939578
C  C256  1  0.18223000  0.65509000  0.99850000  1.0 0.1683939578
C  C257  1  0.00150000  0.68223000  0.84491000  1.0 0.1683939578
C  C258  1  0.50150000  0.81777000  0.15509000  1.0 0.1683939578
C  C259  1  0.49850000  0.31777000  0.34491000  1.0 0.1683939578
C  C260  1  0.99850000  0.18223000  0.65509000  1.0 0.1683939578
C  C261  1  0.84491000  0.00150000  0.68223000  1.0 0.1683939578
C  C262  1  0.15509000  0.50150000  0.81777000  1.0 0.1683939578
C  C263  1  0.34491000  0.49850000  0.31777000  1.0 0.1683939578
C  C264  1  0.65509000  0.99850000  0.18223000  1.0 0.1683939578
C  C265  1  0.32775000  0.18269000  0.00630000  1.0 -0.2101454809
C  C266  1  0.17225000  0.81731000  0.50630000  1.0 -0.2101454809
C  C267  1  0.67225000  0.68269000  0.49370000  1.0 -0.2101454809
C  C268  1  0.82775000  0.31731000  0.99370000  1.0 -0.2101454809
C  C269  1  0.00630000  0.32775000  0.18269000  1.0 -0.2101454809
C  C270  1  0.50630000  0.17225000  0.81731000  1.0 -0.2101454809
C  C271  1  0.49370000  0.67225000  0.68269000  1.0 -0.2101454809
C  C272  1  0.99370000  0.82775000  0.31731000  1.0 -0.2101454809
C  C273  1  0.18269000  0.00630000  0.32775000  1.0 -0.2101454809
C  C274  1  0.81731000  0.50630000  0.17225000  1.0 -0.2101454809
C  C275  1  0.68269000  0.49370000  0.67225000  1.0 -0.2101454809
C  C276  1  0.31731000  0.99370000  0.82775000  1.0 -0.2101454809
C  C277  1  0.67225000  0.81731000  0.99370000  1.0 -0.2101454809
C  C278  1  0.82775000  0.18269000  0.49370000  1.0 -0.2101454809
C  C279  1  0.32775000  0.31731000  0.50630000  1.0 -0.2101454809
C  C280  1  0.17225000  0.68269000  0.00630000  1.0 -0.2101454809
C  C281  1  0.99370000  0.67225000  0.81731000  1.0 -0.2101454809
C  C282  1  0.49370000  0.82775000  0.18269000  1.0 -0.2101454809
C  C283  1  0.50630000  0.32775000  0.31731000  1.0 -0.2101454809
C  C284  1  0.00630000  0.17225000  0.68269000  1.0 -0.2101454809
C  C285  1  0.81731000  0.99370000  0.67225000  1.0 -0.2101454809
C  C286  1  0.18269000  0.49370000  0.82775000  1.0 -0.2101454809
C  C287  1  0.31731000  0.50630000  0.32775000  1.0 -0.2101454809
C  C288  1  0.68269000  0.00630000  0.17225000  1.0 -0.2101454809
C  C289  1  0.35703000  0.18685000  0.01320000  1.0 -0.0481767442
C  C290  1  0.14297000  0.81315000  0.51320000  1.0 -0.0481767442
C  C291  1  0.64297000  0.68685000  0.48680000  1.0 -0.0481767442
C  C292  1  0.85703000  0.31315000  0.98680000  1.0 -0.0481767442
C  C293  1  0.01320000  0.35703000  0.18685000  1.0 -0.0481767442
C  C294  1  0.51320000  0.14297000  0.81315000  1.0 -0.0481767442
C  C295  1  0.48680000  0.64297000  0.68685000  1.0 -0.0481767442
C  C296  1  0.98680000  0.85703000  0.31315000  1.0 -0.0481767442
C  C297  1  0.18685000  0.01320000  0.35703000  1.0 -0.0481767442
C  C298  1  0.81315000  0.51320000  0.14297000  1.0 -0.0481767442
C  C299  1  0.68685000  0.48680000  0.64297000  1.0 -0.0481767442
C  C300  1  0.31315000  0.98680000  0.85703000  1.0 -0.0481767442
C  C301  1  0.64297000  0.81315000  0.98680000  1.0 -0.0481767442
C  C302  1  0.85703000  0.18685000  0.48680000  1.0 -0.0481767442
C  C303  1  0.35703000  0.31315000  0.51320000  1.0 -0.0481767442
C  C304  1  0.14297000  0.68685000  0.01320000  1.0 -0.0481767442
C  C305  1  0.98680000  0.64297000  0.81315000  1.0 -0.0481767442
C  C306  1  0.48680000  0.85703000  0.18685000  1.0 -0.0481767442
C  C307  1  0.51320000  0.35703000  0.31315000  1.0 -0.0481767442
C  C308  1  0.01320000  0.14297000  0.68685000  1.0 -0.0481767442
C  C309  1  0.81315000  0.98680000  0.64297000  1.0 -0.0481767442
C  C310  1  0.18685000  0.48680000  0.85703000  1.0 -0.0481767442
C  C311  1  0.31315000  0.51320000  0.35703000  1.0 -0.0481767442
C  C312  1  0.68685000  0.01320000  0.14297000  1.0 -0.0481767442
C  C313  1  0.38540000  0.95678000  0.15879000  1.0 -0.0409376433
C  C314  1  0.11460000  0.04322000  0.65879000  1.0 -0.0409376433
C  C315  1  0.61460000  0.45678000  0.34121000  1.0 -0.0409376433
C  C316  1  0.88540000  0.54322000  0.84121000  1.0 -0.0409376433
C  C317  1  0.15879000  0.38540000  0.95678000  1.0 -0.0409376433
C  C318  1  0.65879000  0.11460000  0.04322000  1.0 -0.0409376433
C  C319  1  0.34121000  0.61460000  0.45678000  1.0 -0.0409376433
C  C320  1  0.84121000  0.88540000  0.54322000  1.0 -0.0409376433
C  C321  1  0.95678000  0.15879000  0.38540000  1.0 -0.0409376433
C  C322  1  0.04322000  0.65879000  0.11460000  1.0 -0.0409376433
C  C323  1  0.45678000  0.34121000  0.61460000  1.0 -0.0409376433
C  C324  1  0.54322000  0.84121000  0.88540000  1.0 -0.0409376433
C  C325  1  0.61460000  0.04322000  0.84121000  1.0 -0.0409376433
C  C326  1  0.88540000  0.95678000  0.34121000  1.0 -0.0409376433
C  C327  1  0.38540000  0.54322000  0.65879000  1.0 -0.0409376433
C  C328  1  0.11460000  0.45678000  0.15879000  1.0 -0.0409376433
C  C329  1  0.84121000  0.61460000  0.04322000  1.0 -0.0409376433
C  C330  1  0.34121000  0.88540000  0.95678000  1.0 -0.0409376433
C  C331  1  0.65879000  0.38540000  0.54322000  1.0 -0.0409376433
C  C332  1  0.15879000  0.11460000  0.45678000  1.0 -0.0409376433
C  C333  1  0.04322000  0.84121000  0.61460000  1.0 -0.0409376433
C  C334  1  0.95678000  0.34121000  0.88540000  1.0 -0.0409376433
C  C335  1  0.54322000  0.65879000  0.38540000  1.0 -0.0409376433
C  C336  1  0.45678000  0.15879000  0.11460000  1.0 -0.0409376433
C  C337  1  0.37452000  0.95849000  0.13049000  1.0 -0.1071585905
C  C338  1  0.12548000  0.04151000  0.63049000  1.0 -0.1071585905
C  C339  1  0.62548000  0.45849000  0.36951000  1.0 -0.1071585905
C  C340  1  0.87452000  0.54151000  0.86951000  1.0 -0.1071585905
C  C341  1  0.13049000  0.37452000  0.95849000  1.0 -0.1002897244
C  C342  1  0.63049000  0.12548000  0.04151000  1.0 -0.1071585905
C  C343  1  0.36951000  0.62548000  0.45849000  1.0 -0.1071585905
C  C344  1  0.86951000  0.87452000  0.54151000  1.0 -0.1071585905
C  C345  1  0.95849000  0.13049000  0.37452000  1.0 -0.1002897244
C  C346  1  0.04151000  0.63049000  0.12548000  1.0 -0.1071585905
C  C347  1  0.45849000  0.36951000  0.62548000  1.0 -0.1071585905
C  C348  1  0.54151000  0.86951000  0.87452000  1.0 -0.1071585905
C  C349  1  0.62548000  0.04151000  0.86951000  1.0 -0.1002897244
C  C350  1  0.87452000  0.95849000  0.36951000  1.0 -0.1071585905
C  C351  1  0.37452000  0.54151000  0.63049000  1.0 -0.1071585905
C  C352  1  0.12548000  0.45849000  0.13049000  1.0 -0.1071585905
C  C353  1  0.86951000  0.62548000  0.04151000  1.0 -0.1071585905
C  C354  1  0.36951000  0.87452000  0.95849000  1.0 -0.1071585905
C  C355  1  0.63049000  0.37452000  0.54151000  1.0 -0.1071585905
C  C356  1  0.13049000  0.12548000  0.45849000  1.0 -0.1071585905
C  C357  1  0.04151000  0.86951000  0.62548000  1.0 -0.1071585905
C  C358  1  0.95849000  0.36951000  0.87452000  1.0 -0.1071585905
C  C359  1  0.54151000  0.63049000  0.37452000  1.0 -0.1071585905
C  C360  1  0.45849000  0.13049000  0.12548000  1.0 -0.1071585905
C  C361  1  0.34452000  0.95869000  0.12574000  1.0 -0.0290065421
C  C362  1  0.15548000  0.04131000  0.62574000  1.0 -0.0290065421
C  C363  1  0.65548000  0.45869000  0.37426000  1.0 -0.0290065421
C  C364  1  0.84452000  0.54131000  0.87426000  1.0 -0.0290065421
C  C365  1  0.12574000  0.34452000  0.95869000  1.0 -0.0290065421
C  C366  1  0.62574000  0.15548000  0.04131000  1.0 -0.0290065421
C  C367  1  0.37426000  0.65548000  0.45869000  1.0 -0.0290065421
C  C368  1  0.87426000  0.84452000  0.54131000  1.0 -0.0290065421
C  C369  1  0.95869000  0.12574000  0.34452000  1.0 -0.0290065421
C  C370  1  0.04131000  0.62574000  0.15548000  1.0 -0.0290065421
C  C371  1  0.45869000  0.37426000  0.65548000  1.0 -0.0290065421
C  C372  1  0.54131000  0.87426000  0.84452000  1.0 -0.0290065421
C  C373  1  0.65548000  0.04131000  0.87426000  1.0 -0.0290065421
C  C374  1  0.84452000  0.95869000  0.37426000  1.0 -0.0290065421
C  C375  1  0.34452000  0.54131000  0.62574000  1.0 -0.0290065421
C  C376  1  0.15548000  0.45869000  0.12574000  1.0 -0.0290065421
C  C377  1  0.87426000  0.65548000  0.04131000  1.0 -0.0290065421
C  C378  1  0.37426000  0.84452000  0.95869000  1.0 -0.0290065421
C  C379  1  0.62574000  0.34452000  0.54131000  1.0 -0.0290065421
C  C380  1  0.12574000  0.15548000  0.45869000  1.0 -0.0290065421
C  C381  1  0.04131000  0.87426000  0.65548000  1.0 -0.0290065421
C  C382  1  0.95869000  0.37426000  0.84452000  1.0 -0.0290065421
C  C383  1  0.54131000  0.62574000  0.34452000  1.0 -0.0290065421
C  C384  1  0.45869000  0.12574000  0.15548000  1.0 -0.0290065421
C  C385  1  0.32541000  0.95720000  0.14929000  1.0 0.1395479084
C  C386  1  0.17459000  0.04280000  0.64929000  1.0 0.1395479084
C  C387  1  0.67459000  0.45720000  0.35071000  1.0 0.1395479084
C  C388  1  0.82541000  0.54280000  0.85071000  1.0 0.1395479084
C  C389  1  0.14929000  0.32541000  0.95720000  1.0 0.1395479084
C  C390  1  0.64929000  0.17459000  0.04280000  1.0 0.1395479084
C  C391  1  0.35071000  0.67459000  0.45720000  1.0 0.1395479084
C  C392  1  0.85071000  0.82541000  0.54280000  1.0 0.1395479084
C  C393  1  0.95720000  0.14929000  0.32541000  1.0 0.1395479084
C  C394  1  0.04280000  0.64929000  0.17459000  1.0 0.1395479084
C  C395  1  0.45720000  0.35071000  0.67459000  1.0 0.1395479084
C  C396  1  0.54280000  0.85071000  0.82541000  1.0 0.1395479084
C  C397  1  0.67459000  0.04280000  0.85071000  1.0 0.1395479084
C  C398  1  0.82541000  0.95720000  0.35071000  1.0 0.1395479084
C  C399  1  0.32541000  0.54280000  0.64929000  1.0 0.1395479084
C  C400  1  0.17459000  0.45720000  0.14929000  1.0 0.1395479084
C  C401  1  0.85071000  0.67459000  0.04280000  1.0 0.1395479084
C  C402  1  0.35071000  0.82541000  0.95720000  1.0 0.1395479084
C  C403  1  0.64929000  0.32541000  0.54280000  1.0 0.1395479084
C  C404  1  0.14929000  0.17459000  0.45720000  1.0 0.1395479084
C  C405  1  0.04280000  0.85071000  0.67459000  1.0 0.1395479084
C  C406  1  0.95720000  0.35071000  0.82541000  1.0 0.1395479084
C  C407  1  0.54280000  0.64929000  0.32541000  1.0 0.1395479084
C  C408  1  0.45720000  0.14929000  0.17459000  1.0 0.1395479084
C  C409  1  0.33629000  0.95550000  0.17759000  1.0 -0.2006468325
C  C410  1  0.16371000  0.04450000  0.67759000  1.0 -0.2006468325
C  C411  1  0.66371000  0.45550000  0.32241000  1.0 -0.2006468325
C  C412  1  0.83629000  0.54450000  0.82241000  1.0 -0.2006468325
C  C413  1  0.17759000  0.33629000  0.95550000  1.0 -0.2006468325
C  C414  1  0.67759000  0.16371000  0.04450000  1.0 -0.2006468325
C  C415  1  0.32241000  0.66371000  0.45550000  1.0 -0.2006468325
C  C416  1  0.82241000  0.83629000  0.54450000  1.0 -0.2006468325
C  C417  1  0.95550000  0.17759000  0.33629000  1.0 -0.2006468325
C  C418  1  0.04450000  0.67759000  0.16371000  1.0 -0.2006468325
C  C419  1  0.45550000  0.32241000  0.66371000  1.0 -0.2006468325
C  C420  1  0.54450000  0.82241000  0.83629000  1.0 -0.2006468325
C  C421  1  0.66371000  0.04450000  0.82241000  1.0 -0.2006468325
C  C422  1  0.83629000  0.95550000  0.32241000  1.0 -0.2006468325
C  C423  1  0.33629000  0.54450000  0.67759000  1.0 -0.2006468325
C  C424  1  0.16371000  0.45550000  0.17759000  1.0 -0.2006468325
C  C425  1  0.82241000  0.66371000  0.04450000  1.0 -0.2006468325
C  C426  1  0.32241000  0.83629000  0.95550000  1.0 -0.2006468325
C  C427  1  0.67759000  0.33629000  0.54450000  1.0 -0.2006468325
C  C428  1  0.17759000  0.16371000  0.45550000  1.0 -0.2006468325
C  C429  1  0.04450000  0.82241000  0.66371000  1.0 -0.2006468325
C  C430  1  0.95550000  0.32241000  0.83629000  1.0 -0.2006468325
C  C431  1  0.54450000  0.67759000  0.33629000  1.0 -0.2006468325
C  C432  1  0.45550000  0.17759000  0.16371000  1.0 -0.2006468325
C  C433  1  0.36628000  0.95530000  0.18234000  1.0 -0.069264412
C  C434  1  0.13372000  0.04470000  0.68234000  1.0 -0.069264412
C  C435  1  0.63372000  0.45530000  0.31766000  1.0 -0.069264412
C  C436  1  0.86628000  0.54470000  0.81766000  1.0 -0.069264412
C  C437  1  0.18234000  0.36628000  0.95530000  1.0 -0.069264412
C  C438  1  0.68234000  0.13372000  0.04470000  1.0 -0.069264412
C  C439  1  0.31766000  0.63372000  0.45530000  1.0 -0.069264412
C  C440  1  0.81766000  0.86628000  0.54470000  1.0 -0.069264412
C  C441  1  0.95530000  0.18234000  0.36628000  1.0 -0.069264412
C  C442  1  0.04470000  0.68234000  0.13372000  1.0 -0.069264412
C  C443  1  0.45530000  0.31766000  0.63372000  1.0 -0.069264412
C  C444  1  0.54470000  0.81766000  0.86628000  1.0 -0.069264412
C  C445  1  0.63372000  0.04470000  0.81766000  1.0 -0.069264412
C  C446  1  0.86628000  0.95530000  0.31766000  1.0 -0.069264412
C  C447  1  0.36628000  0.54470000  0.68234000  1.0 -0.069264412
C  C448  1  0.13372000  0.45530000  0.18234000  1.0 -0.069264412
C  C449  1  0.81766000  0.63372000  0.04470000  1.0 -0.069264412
C  C450  1  0.31766000  0.86628000  0.95530000  1.0 -0.069264412
C  C451  1  0.68234000  0.36628000  0.54470000  1.0 -0.069264412
C  C452  1  0.18234000  0.13372000  0.45530000  1.0 -0.069264412
C  C453  1  0.04470000  0.81766000  0.63372000  1.0 -0.069264412
C  C454  1  0.95530000  0.31766000  0.86628000  1.0 -0.069264412
C  C455  1  0.54470000  0.68234000  0.36628000  1.0 -0.069264412
C  C456  1  0.45530000  0.18234000  0.13372000  1.0 -0.069264412
C  C457  1  0.31420000  0.96780000  0.01920000  1.0 0.5583031874
C  C458  1  0.18580000  0.03220000  0.51920000  1.0 0.5583031874
C  C459  1  0.68580000  0.46780000  0.48080000  1.0 0.5583031874
C  C460  1  0.81420000  0.53220000  0.98080000  1.0 0.5583031874
C  C461  1  0.01920000  0.31420000  0.96780000  1.0 0.5583031874
C  C462  1  0.51920000  0.18580000  0.03220000  1.0 0.5583031874
C  C463  1  0.48080000  0.68580000  0.46780000  1.0 0.5583031874
C  C464  1  0.98080000  0.81420000  0.53220000  1.0 0.5583031874
C  C465  1  0.96780000  0.01920000  0.31420000  1.0 0.5583031874
C  C466  1  0.03220000  0.51920000  0.18580000  1.0 0.5583031874
C  C467  1  0.46780000  0.48080000  0.68580000  1.0 0.5583031874
C  C468  1  0.53220000  0.98080000  0.81420000  1.0 0.5583031874
C  C469  1  0.68580000  0.03220000  0.98080000  1.0 0.5583031874
C  C470  1  0.81420000  0.96780000  0.48080000  1.0 0.5583031874
C  C471  1  0.31420000  0.53220000  0.51920000  1.0 0.5583031874
C  C472  1  0.18580000  0.46780000  0.01920000  1.0 0.5583031874
C  C473  1  0.98080000  0.68580000  0.03220000  1.0 0.5583031874
C  C474  1  0.48080000  0.81420000  0.96780000  1.0 0.5583031874
C  C475  1  0.51920000  0.31420000  0.53220000  1.0 0.5583031874
C  C476  1  0.01920000  0.18580000  0.46780000  1.0 0.5583031874
C  C477  1  0.03220000  0.98080000  0.68580000  1.0 0.5583031874
C  C478  1  0.96780000  0.48080000  0.81420000  1.0 0.5583031874
C  C479  1  0.53220000  0.51920000  0.31420000  1.0 0.5583031874
C  C480  1  0.46780000  0.01920000  0.18580000  1.0 0.5583031874
C  C481  1  0.30920000  0.96270000  0.05037000  1.0 -0.0481767442
C  C482  1  0.19080000  0.03730000  0.55037000  1.0 -0.0481767442
C  C483  1  0.69080000  0.46270000  0.44963000  1.0 -0.0481767442
C  C484  1  0.80920000  0.53730000  0.94963000  1.0 -0.0481767442
C  C485  1  0.05037000  0.30920000  0.96270000  1.0 -0.0481767442
C  C486  1  0.55037000  0.19080000  0.03730000  1.0 -0.0481767442
C  C487  1  0.44963000  0.69080000  0.46270000  1.0 -0.0481767442
C  C488  1  0.94963000  0.80920000  0.53730000  1.0 -0.0481767442
C  C489  1  0.96270000  0.05037000  0.30920000  1.0 -0.0481767442
C  C490  1  0.03730000  0.55037000  0.19080000  1.0 -0.0481767442
C  C491  1  0.46270000  0.44963000  0.69080000  1.0 -0.0481767442
C  C492  1  0.53730000  0.94963000  0.80920000  1.0 -0.0481767442
C  C493  1  0.69080000  0.03730000  0.94963000  1.0 -0.0481767442
C  C494  1  0.80920000  0.96270000  0.44963000  1.0 -0.0481767442
C  C495  1  0.30920000  0.53730000  0.55037000  1.0 -0.0481767442
C  C496  1  0.19080000  0.46270000  0.05037000  1.0 -0.0481767442
C  C497  1  0.94963000  0.69080000  0.03730000  1.0 -0.0481767442
C  C498  1  0.44963000  0.80920000  0.96270000  1.0 -0.0481767442
C  C499  1  0.55037000  0.30920000  0.53730000  1.0 -0.0481767442
C  C500  1  0.05037000  0.19080000  0.46270000  1.0 -0.0481767442
C  C501  1  0.03730000  0.94963000  0.69080000  1.0 -0.0481767442
C  C502  1  0.96270000  0.44963000  0.80920000  1.0 -0.0481767442
C  C503  1  0.53730000  0.55037000  0.30920000  1.0 -0.0481767442
C  C504  1  0.46270000  0.05037000  0.19080000  1.0 -0.0481767442
C  C505  1  0.28048000  0.96310000  0.06031000  1.0 -0.0791354768
C  C506  1  0.21952000  0.03690000  0.56031000  1.0 -0.0791354768
C  C507  1  0.71952000  0.46310000  0.43969000  1.0 -0.0791354768
C  C508  1  0.78048000  0.53690000  0.93969000  1.0 -0.0791354768
C  C509  1  0.06031000  0.28048000  0.96310000  1.0 -0.0791354768
C  C510  1  0.56031000  0.21952000  0.03690000  1.0 -0.0791354768
C  C511  1  0.43969000  0.71952000  0.46310000  1.0 -0.0791354768
C  C512  1  0.93969000  0.78048000  0.53690000  1.0 -0.0791354768
C  C513  1  0.96310000  0.06031000  0.28048000  1.0 -0.0791354768
C  C514  1  0.03690000  0.56031000  0.21952000  1.0 -0.0791354768
C  C515  1  0.46310000  0.43969000  0.71952000  1.0 -0.0791354768
C  C516  1  0.53690000  0.93969000  0.78048000  1.0 -0.0791354768
C  C517  1  0.71952000  0.03690000  0.93969000  1.0 -0.0791354768
C  C518  1  0.78048000  0.96310000  0.43969000  1.0 -0.0791354768
C  C519  1  0.28048000  0.53690000  0.56031000  1.0 -0.0791354768
C  C520  1  0.21952000  0.46310000  0.06031000  1.0 -0.0791354768
C  C521  1  0.93969000  0.71952000  0.03690000  1.0 -0.0791354768
C  C522  1  0.43969000  0.78048000  0.96310000  1.0 -0.0791354768
C  C523  1  0.56031000  0.28048000  0.53690000  1.0 -0.0791354768
C  C524  1  0.06031000  0.21952000  0.46310000  1.0 -0.0791354768
C  C525  1  0.03690000  0.93969000  0.71952000  1.0 -0.0791354768
C  C526  1  0.96310000  0.43969000  0.78048000  1.0 -0.0791354768
C  C527  1  0.53690000  0.56031000  0.28048000  1.0 -0.0791354768
C  C528  1  0.46310000  0.06031000  0.21952000  1.0 -0.0791354768
C  C529  1  0.27472000  0.96220000  0.09011000  1.0 -0.1817884362
C  C530  1  0.22528000  0.03780000  0.59011000  1.0 -0.1817884362
C  C531  1  0.72528000  0.46220000  0.40989000  1.0 -0.1817884362
C  C532  1  0.77472000  0.53780000  0.90989000  1.0 -0.1817884362
C  C533  1  0.09011000  0.27472000  0.96220000  1.0 -0.1817884362
C  C534  1  0.59011000  0.22528000  0.03780000  1.0 -0.1817884362
C  C535  1  0.40989000  0.72528000  0.46220000  1.0 -0.1817884362
C  C536  1  0.90989000  0.77472000  0.53780000  1.0 -0.1817884362
C  C537  1  0.96220000  0.09011000  0.27472000  1.0 -0.1817884362
C  C538  1  0.03780000  0.59011000  0.22528000  1.0 -0.1817884362
C  C539  1  0.46220000  0.40989000  0.72528000  1.0 -0.1817884362
C  C540  1  0.53780000  0.90989000  0.77472000  1.0 -0.1817884362
C  C541  1  0.72528000  0.03780000  0.90989000  1.0 -0.1817884362
C  C542  1  0.77472000  0.96220000  0.40989000  1.0 -0.1817884362
C  C543  1  0.27472000  0.53780000  0.59011000  1.0 -0.1817884362
C  C544  1  0.22528000  0.46220000  0.09011000  1.0 -0.1817884362
C  C545  1  0.90989000  0.72528000  0.03780000  1.0 -0.1817884362
C  C546  1  0.40989000  0.77472000  0.96220000  1.0 -0.1817884362
C  C547  1  0.59011000  0.27472000  0.53780000  1.0 -0.1817884362
C  C548  1  0.09011000  0.22528000  0.46220000  1.0 -0.1817884362
C  C549  1  0.03780000  0.90989000  0.72528000  1.0 -0.1817884362
C  C550  1  0.96220000  0.40989000  0.77472000  1.0 -0.1817884362
C  C551  1  0.53780000  0.59011000  0.27472000  1.0 -0.1817884362
C  C552  1  0.46220000  0.09011000  0.22528000  1.0 -0.1817884362
C  C553  1  0.29765000  0.96090000  0.10998000  1.0 0.102080783
C  C554  1  0.20235000  0.03910000  0.60998000  1.0 0.102080783
C  C555  1  0.70235000  0.46090000  0.39002000  1.0 0.102080783
C  C556  1  0.79765000  0.53910000  0.89002000  1.0 0.102080783
C  C557  1  0.10998000  0.29765000  0.96090000  1.0 0.102080783
C  C558  1  0.60998000  0.20235000  0.03910000  1.0 0.102080783
C  C559  1  0.39002000  0.70235000  0.46090000  1.0 0.102080783
C  C560  1  0.89002000  0.79765000  0.53910000  1.0 0.102080783
C  C561  1  0.96090000  0.10998000  0.29765000  1.0 0.102080783
C  C562  1  0.03910000  0.60998000  0.20235000  1.0 0.102080783
C  C563  1  0.46090000  0.39002000  0.70235000  1.0 0.102080783
C  C564  1  0.53910000  0.89002000  0.79765000  1.0 0.102080783
C  C565  1  0.70235000  0.03910000  0.89002000  1.0 0.102080783
C  C566  1  0.79765000  0.96090000  0.39002000  1.0 0.102080783
C  C567  1  0.29765000  0.53910000  0.60998000  1.0 0.102080783
C  C568  1  0.20235000  0.46090000  0.10998000  1.0 0.102080783
C  C569  1  0.89002000  0.70235000  0.03910000  1.0 0.102080783
C  C570  1  0.39002000  0.79765000  0.96090000  1.0 0.102080783
C  C571  1  0.60998000  0.29765000  0.53910000  1.0 0.102080783
C  C572  1  0.10998000  0.20235000  0.46090000  1.0 0.102080783
C  C573  1  0.03910000  0.89002000  0.70235000  1.0 0.102080783
C  C574  1  0.96090000  0.39002000  0.79765000  1.0 0.102080783
C  C575  1  0.53910000  0.60998000  0.29765000  1.0 0.102080783
C  C576  1  0.46090000  0.10998000  0.20235000  1.0 0.102080783
C  C577  1  0.32635000  0.96050000  0.10004000  1.0 -0.0122783115
C  C578  1  0.17365000  0.03950000  0.60004000  1.0 -0.0122783115
C  C579  1  0.67365000  0.46050000  0.39996000  1.0 -0.0122783115
C  C580  1  0.82635000  0.53950000  0.89996000  1.0 -0.0122783115
C  C581  1  0.10004000  0.32635000  0.96050000  1.0 -0.0122783115
C  C582  1  0.60004000  0.17365000  0.03950000  1.0 -0.0122783115
C  C583  1  0.39996000  0.67365000  0.46050000  1.0 -0.0122783115
C  C584  1  0.89996000  0.82635000  0.53950000  1.0 -0.0122783115
C  C585  1  0.96050000  0.10004000  0.32635000  1.0 -0.0122783115
C  C586  1  0.03950000  0.60004000  0.17365000  1.0 -0.0122783115
C  C587  1  0.46050000  0.39996000  0.67365000  1.0 -0.0122783115
C  C588  1  0.53950000  0.89996000  0.82635000  1.0 -0.0122783115
C  C589  1  0.67365000  0.03950000  0.89996000  1.0 -0.0122783115
C  C590  1  0.82635000  0.96050000  0.39996000  1.0 -0.0122783115
C  C591  1  0.32635000  0.53950000  0.60004000  1.0 -0.0122783115
C  C592  1  0.17365000  0.46050000  0.10004000  1.0 -0.0122783115
C  C593  1  0.89996000  0.67365000  0.03950000  1.0 -0.0122783115
C  C594  1  0.39996000  0.82635000  0.96050000  1.0 -0.0122783115
C  C595  1  0.60004000  0.32635000  0.53950000  1.0 -0.0122783115
C  C596  1  0.10004000  0.17365000  0.46050000  1.0 -0.0122783115
C  C597  1  0.03950000  0.89996000  0.67365000  1.0 -0.0122783115
C  C598  1  0.96050000  0.39996000  0.82635000  1.0 -0.0122783115
C  C599  1  0.53950000  0.60004000  0.32635000  1.0 -0.0122783115
C  C600  1  0.46050000  0.10004000  0.17365000  1.0 -0.0122783115
C  C601  1  0.33211000  0.96140000  0.07020000  1.0 -0.1071585905
C  C602  1  0.16789000  0.03860000  0.57020000  1.0 -0.1071585905
C  C603  1  0.66789000  0.46140000  0.42980000  1.0 -0.1071585905
C  C604  1  0.83211000  0.53860000  0.92980000  1.0 -0.1071585905
C  C605  1  0.07020000  0.33211000  0.96140000  1.0 -0.1071585905
C  C606  1  0.57020000  0.16789000  0.03860000  1.0 -0.1071585905
C  C607  1  0.42980000  0.66789000  0.46140000  1.0 -0.1071585905
C  C608  1  0.92980000  0.83211000  0.53860000  1.0 -0.1071585905
C  C609  1  0.96140000  0.07020000  0.33211000  1.0 -0.1071585905
C  C610  1  0.03860000  0.57020000  0.16789000  1.0 -0.1071585905
C  C611  1  0.46140000  0.42980000  0.66789000  1.0 -0.1071585905
C  C612  1  0.53860000  0.92980000  0.83211000  1.0 -0.1071585905
C  C613  1  0.66789000  0.03860000  0.92980000  1.0 -0.1071585905
C  C614  1  0.83211000  0.96140000  0.42980000  1.0 -0.1071585905
C  C615  1  0.33211000  0.53860000  0.57020000  1.0 -0.1071585905
C  C616  1  0.16789000  0.46140000  0.07020000  1.0 -0.1071585905
C  C617  1  0.92980000  0.66789000  0.03860000  1.0 -0.1071585905
C  C618  1  0.42980000  0.83211000  0.96140000  1.0 -0.1071585905
C  C619  1  0.57020000  0.33211000  0.53860000  1.0 -0.1071585905
C  C620  1  0.07020000  0.16789000  0.46140000  1.0 -0.1071585905
C  C621  1  0.03860000  0.92980000  0.66789000  1.0 -0.1071585905
C  C622  1  0.96140000  0.42980000  0.83211000  1.0 -0.1071585905
C  C623  1  0.53860000  0.57020000  0.33211000  1.0 -0.1071585905
C  C624  1  0.46140000  0.07020000  0.16789000  1.0 -0.1071585905
C  C625  1  0.33140000  0.98090000  0.90510000  1.0 0.5123041323
C  C626  1  0.16860000  0.01910000  0.40510000  1.0 0.5123041323
C  C627  1  0.66860000  0.48090000  0.59490000  1.0 0.5123041323
C  C628  1  0.83140000  0.51910000  0.09490000  1.0 0.5123041323
C  C629  1  0.90510000  0.33140000  0.98090000  1.0 0.5123041323
C  C630  1  0.40510000  0.16860000  0.01910000  1.0 0.5123041323
C  C631  1  0.59490000  0.66860000  0.48090000  1.0 0.5123041323
C  C632  1  0.09490000  0.83140000  0.51910000  1.0 0.5123041323
C  C633  1  0.98090000  0.90510000  0.33140000  1.0 0.5123041323
C  C634  1  0.01910000  0.40510000  0.16860000  1.0 0.5123041323
C  C635  1  0.48090000  0.59490000  0.66860000  1.0 0.5123041323
C  C636  1  0.51910000  0.09490000  0.83140000  1.0 0.5123041323
C  C637  1  0.66860000  0.01910000  0.09490000  1.0 0.5123041323
C  C638  1  0.83140000  0.98090000  0.59490000  1.0 0.5123041323
C  C639  1  0.33140000  0.51910000  0.40510000  1.0 0.5123041323
C  C640  1  0.16860000  0.48090000  0.90510000  1.0 0.5123041323
C  C641  1  0.09490000  0.66860000  0.01910000  1.0 0.5123041323
C  C642  1  0.59490000  0.83140000  0.98090000  1.0 0.5123041323
C  C643  1  0.40510000  0.33140000  0.51910000  1.0 0.5123041323
C  C644  1  0.90510000  0.16860000  0.48090000  1.0 0.5123041323
C  C645  1  0.01910000  0.09490000  0.66860000  1.0 0.5123041323
C  C646  1  0.98090000  0.59490000  0.83140000  1.0 0.5123041323
C  C647  1  0.51910000  0.40510000  0.33140000  1.0 0.5123041323
C  C648  1  0.48090000  0.90510000  0.16860000  1.0 0.5123041323
C  C649  1  0.41700000  0.95830000  0.16510000  1.0 0.5755044272
C  C650  1  0.08300000  0.04170000  0.66510000  1.0 0.5755044272
C  C651  1  0.58300000  0.45830000  0.33490000  1.0 0.5755044272
C  C652  1  0.91700000  0.54170000  0.83490000  1.0 0.5755044272
C  C653  1  0.16510000  0.41700000  0.95830000  1.0 0.5755044272
C  C654  1  0.66510000  0.08300000  0.04170000  1.0 0.5755044272
C  C655  1  0.33490000  0.58300000  0.45830000  1.0 0.5755044272
C  C656  1  0.83490000  0.91700000  0.54170000  1.0 0.5755044272
C  C657  1  0.95830000  0.16510000  0.41700000  1.0 0.5755044272
C  C658  1  0.04170000  0.66510000  0.08300000  1.0 0.5755044272
C  C659  1  0.45830000  0.33490000  0.58300000  1.0 0.5755044272
C  C660  1  0.54170000  0.83490000  0.91700000  1.0 0.5755044272
C  C661  1  0.58300000  0.04170000  0.83490000  1.0 0.5755044272
C  C662  1  0.91700000  0.95830000  0.33490000  1.0 0.5755044272
C  C663  1  0.41700000  0.54170000  0.66510000  1.0 0.5755044272
C  C664  1  0.08300000  0.45830000  0.16510000  1.0 0.5755044272
C  C665  1  0.83490000  0.58300000  0.04170000  1.0 0.5755044272
C  C666  1  0.33490000  0.91700000  0.95830000  1.0 0.5755044272
C  C667  1  0.66510000  0.41700000  0.54170000  1.0 0.5755044272
C  C668  1  0.16510000  0.08300000  0.45830000  1.0 0.5755044272
C  C669  1  0.04170000  0.83490000  0.58300000  1.0 0.5755044272
C  C670  1  0.95830000  0.33490000  0.91700000  1.0 0.5755044272
C  C671  1  0.54170000  0.66510000  0.41700000  1.0 0.5755044272
C  C672  1  0.45830000  0.16510000  0.08300000  1.0 0.5755044272
C  C673  1  0.22493000  0.96460000  0.19610000  1.0 0.0732286879
C  C674  1  0.27507000  0.03540000  0.69610000  1.0 0.0732286879
C  C675  1  0.77507000  0.46460000  0.30390000  1.0 0.0732286879
C  C676  1  0.72493000  0.53540000  0.80390000  1.0 0.0732286879
C  C677  1  0.19610000  0.22493000  0.96460000  1.0 0.0732286879
C  C678  1  0.69610000  0.27507000  0.03540000  1.0 0.0732286879
C  C679  1  0.30390000  0.77507000  0.46460000  1.0 0.0732286879
C  C680  1  0.80390000  0.72493000  0.53540000  1.0 0.0732286879
C  C681  1  0.96460000  0.19610000  0.22493000  1.0 0.0732286879
C  C682  1  0.03540000  0.69610000  0.27507000  1.0 0.0732286879
C  C683  1  0.46460000  0.30390000  0.77507000  1.0 0.0732286879
C  C684  1  0.53540000  0.80390000  0.72493000  1.0 0.0732286879
C  C685  1  0.77507000  0.03540000  0.80390000  1.0 0.0732286879
C  C686  1  0.72493000  0.96460000  0.30390000  1.0 0.0732286879
C  C687  1  0.22493000  0.53540000  0.69610000  1.0 0.0732286879
C  C688  1  0.27507000  0.46460000  0.19610000  1.0 0.0732286879
C  C689  1  0.80390000  0.77507000  0.03540000  1.0 0.0732286879
C  C690  1  0.30390000  0.72493000  0.96460000  1.0 0.0732286879
C  C691  1  0.69610000  0.22493000  0.53540000  1.0 0.0732286879
C  C692  1  0.19610000  0.27507000  0.46460000  1.0 0.0732286879
C  C693  1  0.03540000  0.80390000  0.77507000  1.0 0.0732286879
C  C694  1  0.96460000  0.30390000  0.72493000  1.0 0.0732286879
C  C695  1  0.53540000  0.69610000  0.22493000  1.0 0.0732286879
C  C696  1  0.46460000  0.19610000  0.27507000  1.0 0.0732286879
C  C697  1  0.23080000  0.98670000  0.17610000  1.0 -0.1383059477
C  C698  1  0.26920000  0.01330000  0.67610000  1.0 -0.1383059477
C  C699  1  0.76920000  0.48670000  0.32390000  1.0 -0.1383059477
C  C700  1  0.73080000  0.51330000  0.82390000  1.0 -0.1383059477
C  C701  1  0.17610000  0.23080000  0.98670000  1.0 -0.1383059477
C  C702  1  0.67610000  0.26920000  0.01330000  1.0 -0.1383059477
C  C703  1  0.32390000  0.76920000  0.48670000  1.0 -0.1383059477
C  C704  1  0.82390000  0.73080000  0.51330000  1.0 -0.1383059477
C  C705  1  0.98670000  0.17610000  0.23080000  1.0 -0.1383059477
C  C706  1  0.01330000  0.67610000  0.26920000  1.0 -0.1383059477
C  C707  1  0.48670000  0.32390000  0.76920000  1.0 -0.1383059477
C  C708  1  0.51330000  0.82390000  0.73080000  1.0 -0.1383059477
C  C709  1  0.76920000  0.01330000  0.82390000  1.0 -0.1383059477
C  C710  1  0.73080000  0.98670000  0.32390000  1.0 -0.1383059477
C  C711  1  0.23080000  0.51330000  0.67610000  1.0 -0.1383059477
C  C712  1  0.26920000  0.48670000  0.17610000  1.0 -0.1383059477
C  C713  1  0.82390000  0.76920000  0.01330000  1.0 -0.1383059477
C  C714  1  0.32390000  0.73080000  0.98670000  1.0 -0.1383059477
C  C715  1  0.67610000  0.23080000  0.51330000  1.0 -0.1383059477
C  C716  1  0.17610000  0.26920000  0.48670000  1.0 -0.1383059477
C  C717  1  0.01330000  0.82390000  0.76920000  1.0 -0.1383059477
C  C718  1  0.98670000  0.32390000  0.73080000  1.0 -0.1383059477
C  C719  1  0.51330000  0.67610000  0.23080000  1.0 -0.1383059477
C  C720  1  0.48670000  0.17610000  0.26920000  1.0 -0.1383059477
C  C721  1  0.25480000  0.98460000  0.15770000  1.0 -0.1817884362
C  C722  1  0.24520000  0.01540000  0.65770000  1.0 -0.1817884362
C  C723  1  0.74520000  0.48460000  0.34230000  1.0 -0.1817884362
C  C724  1  0.75480000  0.51540000  0.84230000  1.0 -0.1817884362
C  C725  1  0.15770000  0.25480000  0.98460000  1.0 -0.1817884362
C  C726  1  0.65770000  0.24520000  0.01540000  1.0 -0.1817884362
C  C727  1  0.34230000  0.74520000  0.48460000  1.0 -0.1817884362
C  C728  1  0.84230000  0.75480000  0.51540000  1.0 -0.1817884362
C  C729  1  0.98460000  0.15770000  0.25480000  1.0 -0.1817884362
C  C730  1  0.01540000  0.65770000  0.24520000  1.0 -0.1817884362
C  C731  1  0.48460000  0.34230000  0.74520000  1.0 -0.1817884362
C  C732  1  0.51540000  0.84230000  0.75480000  1.0 -0.1817884362
C  C733  1  0.74520000  0.01540000  0.84230000  1.0 -0.1817884362
C  C734  1  0.75480000  0.98460000  0.34230000  1.0 -0.1817884362
C  C735  1  0.25480000  0.51540000  0.65770000  1.0 -0.1817884362
C  C736  1  0.24520000  0.48460000  0.15770000  1.0 -0.1817884362
C  C737  1  0.84230000  0.74520000  0.01540000  1.0 -0.1817884362
C  C738  1  0.34230000  0.75480000  0.98460000  1.0 -0.1817884362
C  C739  1  0.65770000  0.25480000  0.51540000  1.0 -0.1817884362
C  C740  1  0.15770000  0.24520000  0.48460000  1.0 -0.1817884362
C  C741  1  0.01540000  0.84230000  0.74520000  1.0 -0.1817884362
C  C742  1  0.98460000  0.34230000  0.75480000  1.0 -0.1817884362
C  C743  1  0.51540000  0.65770000  0.25480000  1.0 -0.1817884362
C  C744  1  0.48460000  0.15770000  0.24520000  1.0 -0.1817884362
C  C745  1  0.27305000  0.96030000  0.15930000  1.0 0.1615919522
C  C746  1  0.22695000  0.03970000  0.65930000  1.0 0.1615919522
C  C747  1  0.72695000  0.46030000  0.34070000  1.0 0.1615919522
C  C748  1  0.77305000  0.53970000  0.84070000  1.0 0.1615919522
C  C749  1  0.15930000  0.27305000  0.96030000  1.0 0.1615919522
C  C750  1  0.65930000  0.22695000  0.03970000  1.0 0.1615919522
C  C751  1  0.34070000  0.72695000  0.46030000  1.0 0.1615919522
C  C752  1  0.84070000  0.77305000  0.53970000  1.0 0.1615919522
C  C753  1  0.96030000  0.15930000  0.27305000  1.0 0.1615919522
C  C754  1  0.03970000  0.65930000  0.22695000  1.0 0.1615919522
C  C755  1  0.46030000  0.34070000  0.72695000  1.0 0.1615919522
C  C756  1  0.53970000  0.84070000  0.77305000  1.0 0.1615919522
C  C757  1  0.72695000  0.03970000  0.84070000  1.0 0.1615919522
C  C758  1  0.77305000  0.96030000  0.34070000  1.0 0.1615919522
C  C759  1  0.27305000  0.53970000  0.65930000  1.0 0.1615919522
C  C760  1  0.22695000  0.46030000  0.15930000  1.0 0.1615919522
C  C761  1  0.84070000  0.72695000  0.03970000  1.0 0.1615919522
C  C762  1  0.34070000  0.77305000  0.96030000  1.0 0.1615919522
C  C763  1  0.65930000  0.27305000  0.53970000  1.0 0.1615919522
C  C764  1  0.15930000  0.22695000  0.46030000  1.0 0.1615919522
C  C765  1  0.03970000  0.84070000  0.72695000  1.0 0.1615919522
C  C766  1  0.96030000  0.34070000  0.77305000  1.0 0.1615919522
C  C767  1  0.53970000  0.65930000  0.27305000  1.0 0.1615919522
C  C768  1  0.46030000  0.15930000  0.22695000  1.0 0.1615919522
C  C769  1  0.26720000  0.93820000  0.17930000  1.0 -0.1718483706
C  C770  1  0.23280000  0.06180000  0.67930000  1.0 -0.1718483706
C  C771  1  0.73280000  0.43820000  0.32070000  1.0 -0.1718483706
C  C772  1  0.76720000  0.56180000  0.82070000  1.0 -0.1718483706
C  C773  1  0.17930000  0.26720000  0.93820000  1.0 -0.1718483706
C  C774  1  0.67930000  0.23280000  0.06180000  1.0 -0.1718483706
C  C775  1  0.32070000  0.73280000  0.43820000  1.0 -0.1718483706
C  C776  1  0.82070000  0.76720000  0.56180000  1.0 -0.1718483706
C  C777  1  0.93820000  0.17930000  0.26720000  1.0 -0.1718483706
C  C778  1  0.06180000  0.67930000  0.23280000  1.0 -0.1718483706
C  C779  1  0.43820000  0.32070000  0.73280000  1.0 -0.1718483706
C  C780  1  0.56180000  0.82070000  0.76720000  1.0 -0.1718483706
C  C781  1  0.73280000  0.06180000  0.82070000  1.0 -0.1718483706
C  C782  1  0.76720000  0.93820000  0.32070000  1.0 -0.1718483706
C  C783  1  0.26720000  0.56180000  0.67930000  1.0 -0.1718483706
C  C784  1  0.23280000  0.43820000  0.17930000  1.0 -0.1718483706
C  C785  1  0.82070000  0.73280000  0.06180000  1.0 -0.1718483706
C  C786  1  0.32070000  0.76720000  0.93820000  1.0 -0.1718483706
C  C787  1  0.67930000  0.26720000  0.56180000  1.0 -0.1718483706
C  C788  1  0.17930000  0.23280000  0.43820000  1.0 -0.1718483706
C  C789  1  0.06180000  0.82070000  0.73280000  1.0 -0.1718483706
C  C790  1  0.93820000  0.32070000  0.76720000  1.0 -0.1718483706
C  C791  1  0.56180000  0.67930000  0.26720000  1.0 -0.1718483706
C  C792  1  0.43820000  0.17930000  0.23280000  1.0 -0.1718483706
C  C793  1  0.24310000  0.94030000  0.19770000  1.0 -0.1461965546
C  C794  1  0.25690000  0.05970000  0.69770000  1.0 -0.1461965546
C  C795  1  0.75690000  0.44030000  0.30230000  1.0 -0.1461965546
C  C796  1  0.74310000  0.55970000  0.80230000  1.0 -0.1461965546
C  C797  1  0.19770000  0.24310000  0.94030000  1.0 -0.1461965546
C  C798  1  0.69770000  0.25690000  0.05970000  1.0 -0.1461965546
C  C799  1  0.30230000  0.75690000  0.44030000  1.0 -0.1461965546
C  C800  1  0.80230000  0.74310000  0.55970000  1.0 -0.1461965546
C  C801  1  0.94030000  0.19770000  0.24310000  1.0 -0.1461965546
C  C802  1  0.05970000  0.69770000  0.25690000  1.0 -0.1461965546
C  C803  1  0.44030000  0.30230000  0.75690000  1.0 -0.1461965546
C  C804  1  0.55970000  0.80230000  0.74310000  1.0 -0.1461965546
C  C805  1  0.75690000  0.05970000  0.80230000  1.0 -0.1461965546
C  C806  1  0.74310000  0.94030000  0.30230000  1.0 -0.1461965546
C  C807  1  0.24310000  0.55970000  0.69770000  1.0 -0.1461965546
C  C808  1  0.25690000  0.44030000  0.19770000  1.0 -0.1461965546
C  C809  1  0.80230000  0.75690000  0.05970000  1.0 -0.1461965546
C  C810  1  0.30230000  0.74310000  0.94030000  1.0 -0.1461965546
C  C811  1  0.69770000  0.24310000  0.55970000  1.0 -0.1461965546
C  C812  1  0.19770000  0.25690000  0.44030000  1.0 -0.1461965546
C  C813  1  0.05970000  0.80230000  0.75690000  1.0 -0.1461965546
C  C814  1  0.94030000  0.30230000  0.74310000  1.0 -0.1461965546
C  C815  1  0.55970000  0.69770000  0.24310000  1.0 -0.1461965546
C  C816  1  0.44030000  0.19770000  0.25690000  1.0 -0.1461965546
C  C817  1  0.26800000  0.16570000  0.97770000  1.0 0.1508326162
C  C818  1  0.23200000  0.83430000  0.47770000  1.0 0.1508326162
C  C819  1  0.73200000  0.66570000  0.52230000  1.0 0.1508326162
C  C820  1  0.76800000  0.33430000  0.02230000  1.0 0.1508326162
C  C821  1  0.97770000  0.26800000  0.16570000  1.0 0.1508326162
C  C822  1  0.47770000  0.23200000  0.83430000  1.0 0.1508326162
C  C823  1  0.52230000  0.73200000  0.66570000  1.0 0.1508326162
C  C824  1  0.02230000  0.76800000  0.33430000  1.0 0.1508326162
C  C825  1  0.16570000  0.97770000  0.26800000  1.0 0.1508326162
C  C826  1  0.83430000  0.47770000  0.23200000  1.0 0.1508326162
C  C827  1  0.66570000  0.52230000  0.73200000  1.0 0.1508326162
C  C828  1  0.33430000  0.02230000  0.76800000  1.0 0.1508326162
C  C829  1  0.73200000  0.83430000  0.02230000  1.0 0.1508326162
C  C830  1  0.76800000  0.16570000  0.52230000  1.0 0.1508326162
C  C831  1  0.26800000  0.33430000  0.47770000  1.0 0.1508326162
C  C832  1  0.23200000  0.66570000  0.97770000  1.0 0.1508326162
C  C833  1  0.02230000  0.73200000  0.83430000  1.0 0.1508326162
C  C834  1  0.52230000  0.76800000  0.16570000  1.0 0.1508326162
C  C835  1  0.47770000  0.26800000  0.33430000  1.0 0.1508326162
C  C836  1  0.97770000  0.23200000  0.66570000  1.0 0.1508326162
C  C837  1  0.83430000  0.02230000  0.73200000  1.0 0.1508326162
C  C838  1  0.16570000  0.52230000  0.76800000  1.0 0.1508326162
C  C839  1  0.33430000  0.47770000  0.26800000  1.0 0.1508326162
C  C840  1  0.66570000  0.97770000  0.23200000  1.0 0.1508326162
C  C841  1  0.26880000  0.18640000  0.95560000  1.0 -0.1817884362
C  C842  1  0.23120000  0.81360000  0.45560000  1.0 -0.1817884362
C  C843  1  0.73120000  0.68640000  0.54440000  1.0 -0.1817884362
C  C844  1  0.76880000  0.31360000  0.04440000  1.0 -0.1817884362
C  C845  1  0.95560000  0.26880000  0.18640000  1.0 -0.1817884362
C  C846  1  0.45560000  0.23120000  0.81360000  1.0 -0.1817884362
C  C847  1  0.54440000  0.73120000  0.68640000  1.0 -0.1817884362
C  C848  1  0.04440000  0.76880000  0.31360000  1.0 -0.1817884362
C  C849  1  0.18640000  0.95560000  0.26880000  1.0 -0.1817884362
C  C850  1  0.81360000  0.45560000  0.23120000  1.0 -0.1817884362
C  C851  1  0.68640000  0.54440000  0.73120000  1.0 -0.1817884362
C  C852  1  0.31360000  0.04440000  0.76880000  1.0 -0.1817884362
C  C853  1  0.73120000  0.81360000  0.04440000  1.0 -0.1817884362
C  C854  1  0.76880000  0.18640000  0.54440000  1.0 -0.1817884362
C  C855  1  0.26880000  0.31360000  0.45560000  1.0 -0.1817884362
C  C856  1  0.23120000  0.68640000  0.95560000  1.0 -0.1817884362
C  C857  1  0.04440000  0.73120000  0.81360000  1.0 -0.1817884362
C  C858  1  0.54440000  0.76880000  0.18640000  1.0 -0.1817884362
C  C859  1  0.45560000  0.26880000  0.31360000  1.0 -0.1817884362
C  C860  1  0.95560000  0.23120000  0.68640000  1.0 -0.1817884362
C  C861  1  0.81360000  0.04440000  0.73120000  1.0 -0.1817884362
C  C862  1  0.18640000  0.54440000  0.76880000  1.0 -0.1817884362
C  C863  1  0.31360000  0.45560000  0.26880000  1.0 -0.1817884362
C  C864  1  0.68640000  0.95560000  0.23120000  1.0 -0.1817884362
C  C865  1  0.24700000  0.20750000  0.95370000  1.0 -0.1349032598
C  C866  1  0.25300000  0.79250000  0.45370000  1.0 -0.1383059477
C  C867  1  0.75300000  0.70750000  0.54630000  1.0 -0.1349032598
C  C868  1  0.74700000  0.29250000  0.04630000  1.0 -0.1349032598
C  C869  1  0.95370000  0.24700000  0.20750000  1.0 -0.1349032598
C  C870  1  0.45370000  0.25300000  0.79250000  1.0 -0.1383059477
C  C871  1  0.54630000  0.75300000  0.70750000  1.0 -0.1349032598
C  C872  1  0.04630000  0.74700000  0.29250000  1.0 -0.1349032598
C  C873  1  0.20750000  0.95370000  0.24700000  1.0 -0.1349032598
C  C874  1  0.79250000  0.45370000  0.25300000  1.0 -0.1383059477
C  C875  1  0.70750000  0.54630000  0.75300000  1.0 -0.1349032598
C  C876  1  0.29250000  0.04630000  0.74700000  1.0 -0.1349032598
C  C877  1  0.75300000  0.79250000  0.04630000  1.0 -0.1349032598
C  C878  1  0.74700000  0.20750000  0.54630000  1.0 -0.1349032598
C  C879  1  0.24700000  0.29250000  0.45370000  1.0 -0.1349032598
C  C880  1  0.25300000  0.70750000  0.95370000  1.0 -0.1349032598
C  C881  1  0.04630000  0.75300000  0.79250000  1.0 -0.1349032598
C  C882  1  0.54630000  0.74700000  0.20750000  1.0 -0.1349032598
C  C883  1  0.45370000  0.24700000  0.29250000  1.0 -0.1349032598
C  C884  1  0.95370000  0.25300000  0.70750000  1.0 -0.1349032598
C  C885  1  0.79250000  0.04630000  0.75300000  1.0 -0.1349032598
C  C886  1  0.20750000  0.54630000  0.74700000  1.0 -0.1349032598
C  C887  1  0.29250000  0.45370000  0.24700000  1.0 -0.1349032598
C  C888  1  0.70750000  0.95370000  0.25300000  1.0 -0.1349032598
C  C889  1  0.22430000  0.20770000  0.97390000  1.0 0.0732286879
C  C890  1  0.27570000  0.79230000  0.47390000  1.0 0.0732286879
C  C891  1  0.77570000  0.70770000  0.52610000  1.0 0.0732286879
C  C892  1  0.72430000  0.29230000  0.02610000  1.0 0.0732286879
C  C893  1  0.97390000  0.22430000  0.20770000  1.0 0.0732286879
C  C894  1  0.47390000  0.27570000  0.79230000  1.0 0.0732286879
C  C895  1  0.52610000  0.77570000  0.70770000  1.0 0.0732286879
C  C896  1  0.02610000  0.72430000  0.29230000  1.0 0.0732286879
C  C897  1  0.20770000  0.97390000  0.22430000  1.0 0.0732286879
C  C898  1  0.79230000  0.47390000  0.27570000  1.0 0.0732286879
C  C899  1  0.70770000  0.52610000  0.77570000  1.0 0.0732286879
C  C900  1  0.29230000  0.02610000  0.72430000  1.0 0.0732286879
C  C901  1  0.77570000  0.79230000  0.02610000  1.0 0.0732286879
C  C902  1  0.72430000  0.20770000  0.52610000  1.0 0.0732286879
C  C903  1  0.22430000  0.29230000  0.47390000  1.0 0.0732286879
C  C904  1  0.27570000  0.70770000  0.97390000  1.0 0.0732286879
C  C905  1  0.02610000  0.77570000  0.79230000  1.0 0.0732286879
C  C906  1  0.52610000  0.72430000  0.20770000  1.0 0.0732286879
C  C907  1  0.47390000  0.22430000  0.29230000  1.0 0.0732286879
C  C908  1  0.97390000  0.27570000  0.70770000  1.0 0.0732286879
C  C909  1  0.79230000  0.02610000  0.77570000  1.0 0.0732286879
C  C910  1  0.20770000  0.52610000  0.72430000  1.0 0.0732286879
C  C911  1  0.29230000  0.47390000  0.22430000  1.0 0.0732286879
C  C912  1  0.70770000  0.97390000  0.27570000  1.0 0.0732286879
C  C913  1  0.22350000  0.18690000  0.99600000  1.0 -0.1383059477
C  C914  1  0.27650000  0.81310000  0.49600000  1.0 -0.1383059477
C  C915  1  0.77650000  0.68690000  0.50400000  1.0 -0.1383059477
C  C916  1  0.72350000  0.31310000  0.00400000  1.0 -0.1383059477
C  C917  1  0.99600000  0.22350000  0.18690000  1.0 -0.1383059477
C  C918  1  0.49600000  0.27650000  0.81310000  1.0 -0.1383059477
C  C919  1  0.50400000  0.77650000  0.68690000  1.0 -0.1383059477
C  C920  1  0.00400000  0.72350000  0.31310000  1.0 -0.1383059477
C  C921  1  0.18690000  0.99600000  0.22350000  1.0 -0.1383059477
C  C922  1  0.81310000  0.49600000  0.27650000  1.0 -0.1383059477
C  C923  1  0.68690000  0.50400000  0.77650000  1.0 -0.1383059477
C  C924  1  0.31310000  0.00400000  0.72350000  1.0 -0.1383059477
C  C925  1  0.77650000  0.81310000  0.00400000  1.0 -0.1383059477
C  C926  1  0.72350000  0.18690000  0.50400000  1.0 -0.1383059477
C  C927  1  0.22350000  0.31310000  0.49600000  1.0 -0.1383059477
C  C928  1  0.27650000  0.68690000  0.99600000  1.0 -0.1383059477
C  C929  1  0.00400000  0.77650000  0.81310000  1.0 -0.1383059477
C  C930  1  0.50400000  0.72350000  0.18690000  1.0 -0.1383059477
C  C931  1  0.49600000  0.22350000  0.31310000  1.0 -0.1383059477
C  C932  1  0.99600000  0.27650000  0.68690000  1.0 -0.1383059477
C  C933  1  0.81310000  0.00400000  0.77650000  1.0 -0.1383059477
C  C934  1  0.18690000  0.50400000  0.72350000  1.0 -0.1383059477
C  C935  1  0.31310000  0.49600000  0.22350000  1.0 -0.1383059477
C  C936  1  0.68690000  0.99600000  0.27650000  1.0 -0.1383059477
C  C937  1  0.24530000  0.16590000  0.99790000  1.0 -0.1718483706
C  C938  1  0.25470000  0.83410000  0.49790000  1.0 -0.1718483706
C  C939  1  0.75470000  0.66590000  0.50210000  1.0 -0.1718483706
C  C940  1  0.74530000  0.33410000  0.00210000  1.0 -0.1718483706
C  C941  1  0.99790000  0.24530000  0.16590000  1.0 -0.1718483706
C  C942  1  0.49790000  0.25470000  0.83410000  1.0 -0.1718483706
C  C943  1  0.50210000  0.75470000  0.66590000  1.0 -0.1718483706
C  C944  1  0.00210000  0.74530000  0.33410000  1.0 -0.1718483706
C  C945  1  0.16590000  0.99790000  0.24530000  1.0 -0.1718483706
C  C946  1  0.83410000  0.49790000  0.25470000  1.0 -0.1718483706
C  C947  1  0.66590000  0.50210000  0.75470000  1.0 -0.1718483706
C  C948  1  0.33410000  0.00210000  0.74530000  1.0 -0.1718483706
C  C949  1  0.75470000  0.83410000  0.00210000  1.0 -0.1718483706
C  C950  1  0.74530000  0.16590000  0.50210000  1.0 -0.1718483706
C  C951  1  0.24530000  0.33410000  0.49790000  1.0 -0.1718483706
C  C952  1  0.25470000  0.66590000  0.99790000  1.0 -0.1718483706
C  C953  1  0.00210000  0.75470000  0.83410000  1.0 -0.1718483706
C  C954  1  0.50210000  0.74530000  0.16590000  1.0 -0.1718483706
C  C955  1  0.49790000  0.24530000  0.33410000  1.0 -0.1718483706
C  C956  1  0.99790000  0.25470000  0.66590000  1.0 -0.1718483706
C  C957  1  0.83410000  0.00210000  0.75470000  1.0 -0.1718483706
C  C958  1  0.16590000  0.50210000  0.74530000  1.0 -0.1718483706
C  C959  1  0.33410000  0.49790000  0.24530000  1.0 -0.1718483706
C  C960  1  0.66590000  0.99790000  0.25470000  1.0 -0.1718483706
N  N1  1  0.29290000  0.14620000  0.98840000  1.0 -0.069264412
N  N2  1  0.20710000  0.85380000  0.48840000  1.0 -0.069264412
N  N3  1  0.70710000  0.64620000  0.51160000  1.0 -0.069264412
N  N4  1  0.79290000  0.35380000  0.01160000  1.0 -0.069264412
N  N5  1  0.98840000  0.29290000  0.14620000  1.0 -0.069264412
N  N6  1  0.48840000  0.20710000  0.85380000  1.0 -0.069264412
N  N7  1  0.51160000  0.70710000  0.64620000  1.0 -0.069264412
N  N8  1  0.01160000  0.79290000  0.35380000  1.0 -0.069264412
N  N9  1  0.14620000  0.98840000  0.29290000  1.0 -0.069264412
N  N10  1  0.85380000  0.48840000  0.20710000  1.0 -0.069264412
N  N11  1  0.64620000  0.51160000  0.70710000  1.0 -0.069264412
N  N12  1  0.35380000  0.01160000  0.79290000  1.0 -0.069264412
N  N13  1  0.70710000  0.85380000  0.01160000  1.0 -0.069264412
N  N14  1  0.79290000  0.14620000  0.51160000  1.0 -0.069264412
N  N15  1  0.29290000  0.35380000  0.48840000  1.0 -0.069264412
N  N16  1  0.20710000  0.64620000  0.98840000  1.0 -0.069264412
N  N17  1  0.01160000  0.70710000  0.85380000  1.0 -0.069264412
N  N18  1  0.51160000  0.79290000  0.14620000  1.0 -0.069264412
N  N19  1  0.48840000  0.29290000  0.35380000  1.0 -0.069264412
N  N20  1  0.98840000  0.20710000  0.64620000  1.0 -0.069264412
N  N21  1  0.85380000  0.01160000  0.70710000  1.0 -0.069264412
N  N22  1  0.14620000  0.51160000  0.79290000  1.0 -0.069264412
N  N23  1  0.35380000  0.48840000  0.29290000  1.0 -0.069264412
N  N24  1  0.64620000  0.98840000  0.20710000  1.0 -0.069264412
N  N25  1  0.29760000  0.95590000  0.14080000  1.0 -0.0791354768
N  N26  1  0.20240000  0.04410000  0.64080000  1.0 -0.0791354768
N  N27  1  0.70240000  0.45590000  0.35920000  1.0 -0.0791354768
N  N28  1  0.79760000  0.54410000  0.85920000  1.0 -0.0791354768
N  N29  1  0.14080000  0.29760000  0.95590000  1.0 -0.0791354768
N  N30  1  0.64080000  0.20240000  0.04410000  1.0 -0.0791354768
N  N31  1  0.35920000  0.70240000  0.45590000  1.0 -0.0791354768
N  N32  1  0.85920000  0.79760000  0.54410000  1.0 -0.0791354768
N  N33  1  0.95590000  0.14080000  0.29760000  1.0 -0.0791354768
N  N34  1  0.04410000  0.64080000  0.20240000  1.0 -0.0791354768
N  N35  1  0.45590000  0.35920000  0.70240000  1.0 -0.0791354768
N  N36  1  0.54410000  0.85920000  0.79760000  1.0 -0.0791354768
N  N37  1  0.70240000  0.04410000  0.85920000  1.0 -0.0791354768
N  N38  1  0.79760000  0.95590000  0.35920000  1.0 -0.0791354768
N  N39  1  0.29760000  0.54410000  0.64080000  1.0 -0.0791354768
N  N40  1  0.20240000  0.45590000  0.14080000  1.0 -0.0791354768
N  N41  1  0.85920000  0.70240000  0.04410000  1.0 -0.0791354768
N  N42  1  0.35920000  0.79760000  0.95590000  1.0 -0.0791354768
N  N43  1  0.64080000  0.29760000  0.54410000  1.0 -0.0791354768
N  N44  1  0.14080000  0.20240000  0.45590000  1.0 -0.0791354768
N  N45  1  0.04410000  0.85920000  0.70240000  1.0 -0.0791354768
N  N46  1  0.95590000  0.35920000  0.79760000  1.0 -0.0791354768
N  N47  1  0.54410000  0.64080000  0.29760000  1.0 -0.0791354768
N  N48  1  0.45590000  0.14080000  0.20240000  1.0 -0.0791354768
O  O1  1  0.34123000  0.96960000  0.01088000  1.0 -0.5321307814
O  O2  1  0.15877000  0.03040000  0.51088000  1.0 -0.5321307814
O  O3  1  0.65877000  0.46960000  0.48912000  1.0 -0.5321307814
O  O4  1  0.84123000  0.53040000  0.98912000  1.0 -0.5321307814
O  O5  1  0.01088000  0.34123000  0.96960000  1.0 -0.5321307814
O  O6  1  0.51088000  0.15877000  0.03040000  1.0 -0.5321307814
O  O7  1  0.48912000  0.65877000  0.46960000  1.0 -0.5321307814
O  O8  1  0.98912000  0.84123000  0.53040000  1.0 -0.5321307814
O  O9  1  0.96960000  0.01088000  0.34123000  1.0 -0.5321307814
O  O10  1  0.03040000  0.51088000  0.15877000  1.0 -0.5321307814
O  O11  1  0.46960000  0.48912000  0.65877000  1.0 -0.5321307814
O  O12  1  0.53040000  0.98912000  0.84123000  1.0 -0.5321307814
O  O13  1  0.65877000  0.03040000  0.98912000  1.0 -0.5321307814
O  O14  1  0.84123000  0.96960000  0.48912000  1.0 -0.535133625
O  O15  1  0.34123000  0.53040000  0.51088000  1.0 -0.5321307814
O  O16  1  0.15877000  0.46960000  0.01088000  1.0 -0.5321307814
O  O17  1  0.98912000  0.65877000  0.03040000  1.0 -0.5321307814
O  O18  1  0.48912000  0.84123000  0.96960000  1.0 -0.535133625
O  O19  1  0.51088000  0.34123000  0.53040000  1.0 -0.5321307814
O  O20  1  0.01088000  0.15877000  0.46960000  1.0 -0.5321307814
O  O21  1  0.03040000  0.98912000  0.65877000  1.0 -0.5321307814
O  O22  1  0.96960000  0.48912000  0.84123000  1.0 -0.535133625
O  O23  1  0.53040000  0.51088000  0.34123000  1.0 -0.5321307814
O  O24  1  0.46960000  0.01088000  0.15877000  1.0 -0.5321307814
O  O25  1  0.29160000  0.96430000  0.99900000  1.0 -0.5468395451
O  O26  1  0.20840000  0.03570000  0.49900000  1.0 -0.5468395451
O  O27  1  0.70840000  0.46430000  0.50100000  1.0 -0.5468395451
O  O28  1  0.79160000  0.53570000  0.00100000  1.0 -0.5468395451
O  O29  1  0.99900000  0.29160000  0.96430000  1.0 -0.5468395451
O  O30  1  0.49900000  0.20840000  0.03570000  1.0 -0.5468395451
O  O31  1  0.50100000  0.70840000  0.46430000  1.0 -0.5468395451
O  O32  1  0.00100000  0.79160000  0.53570000  1.0 -0.5468395451
O  O33  1  0.96430000  0.99900000  0.29160000  1.0 -0.5468395451
O  O34  1  0.03570000  0.49900000  0.20840000  1.0 -0.5468395451
O  O35  1  0.46430000  0.50100000  0.70840000  1.0 -0.5468395451
O  O36  1  0.53570000  0.00100000  0.79160000  1.0 -0.5468395451
O  O37  1  0.70840000  0.03570000  0.00100000  1.0 -0.5468395451
O  O38  1  0.79160000  0.96430000  0.50100000  1.0 -0.5468395451
O  O39  1  0.29160000  0.53570000  0.49900000  1.0 -0.5468395451
O  O40  1  0.20840000  0.46430000  0.99900000  1.0 -0.5468395451
O  O41  1  0.00100000  0.70840000  0.03570000  1.0 -0.5468395451
O  O42  1  0.50100000  0.79160000  0.96430000  1.0 -0.5468395451
O  O43  1  0.49900000  0.29160000  0.53570000  1.0 -0.5468395451
O  O44  1  0.99900000  0.20840000  0.46430000  1.0 -0.5468395451
O  O45  1  0.03570000  0.00100000  0.70840000  1.0 -0.5468395451
O  O46  1  0.96430000  0.50100000  0.79160000  1.0 -0.5468395451
O  O47  1  0.53570000  0.49900000  0.29160000  1.0 -0.5468395451
O  O48  1  0.46430000  0.99900000  0.20840000  1.0 -0.5468395451
O  O49  1  0.35272000  0.98354000  0.92538000  1.0 -0.5573028698
O  O50  1  0.14728000  0.01646000  0.42538000  1.0 -0.5573028698
O  O51  1  0.64728000  0.48354000  0.57462000  1.0 -0.5573028698
O  O52  1  0.85272000  0.51646000  0.07462000  1.0 -0.5573028698
O  O53  1  0.92538000  0.35272000  0.98354000  1.0 -0.5573028698
O  O54  1  0.42538000  0.14728000  0.01646000  1.0 -0.5573028698
O  O55  1  0.57462000  0.64728000  0.48354000  1.0 -0.5573028698
O  O56  1  0.07462000  0.85272000  0.51646000  1.0 -0.5573028698
O  O57  1  0.98354000  0.92538000  0.35272000  1.0 -0.5573028698
O  O58  1  0.01646000  0.42538000  0.14728000  1.0 -0.5573028698
O  O59  1  0.48354000  0.57462000  0.64728000  1.0 -0.5573028698
O  O60  1  0.51646000  0.07462000  0.85272000  1.0 -0.5573028698
O  O61  1  0.64728000  0.01646000  0.07462000  1.0 -0.5573028698
O  O62  1  0.85272000  0.98354000  0.57462000  1.0 -0.5573028698
O  O63  1  0.35272000  0.51646000  0.42538000  1.0 -0.5573028698
O  O64  1  0.14728000  0.48354000  0.92538000  1.0 -0.5573028698
O  O65  1  0.07462000  0.64728000  0.01646000  1.0 -0.5573028698
O  O66  1  0.57462000  0.85272000  0.98354000  1.0 -0.5573028698
O  O67  1  0.42538000  0.35272000  0.51646000  1.0 -0.5573028698
O  O68  1  0.92538000  0.14728000  0.48354000  1.0 -0.5573028698
O  O69  1  0.01646000  0.07462000  0.64728000  1.0 -0.5573028698
O  O70  1  0.98354000  0.57462000  0.85272000  1.0 -0.5573028698
O  O71  1  0.51646000  0.42538000  0.35272000  1.0 -0.5573028698
O  O72  1  0.48354000  0.92538000  0.14728000  1.0 -0.5573028698
O  O73  1  0.30500000  0.97198000  0.91555000  1.0 -0.5321307814
O  O74  1  0.19500000  0.02802000  0.41555000  1.0 -0.5321307814
O  O75  1  0.69500000  0.47198000  0.58445000  1.0 -0.5321307814
O  O76  1  0.80500000  0.52802000  0.08445000  1.0 -0.5321307814
O  O77  1  0.91555000  0.30500000  0.97198000  1.0 -0.5321307814
O  O78  1  0.41555000  0.19500000  0.02802000  1.0 -0.5321307814
O  O79  1  0.58445000  0.69500000  0.47198000  1.0 -0.5321307814
O  O80  1  0.08445000  0.80500000  0.52802000  1.0 -0.5321307814
O  O81  1  0.97198000  0.91555000  0.30500000  1.0 -0.5321307814
O  O82  1  0.02802000  0.41555000  0.19500000  1.0 -0.5321307814
O  O83  1  0.47198000  0.58445000  0.69500000  1.0 -0.5321307814
O  O84  1  0.52802000  0.08445000  0.80500000  1.0 -0.5321307814
O  O85  1  0.69500000  0.02802000  0.08445000  1.0 -0.5321307814
O  O86  1  0.80500000  0.97198000  0.58445000  1.0 -0.5321307814
O  O87  1  0.30500000  0.52802000  0.41555000  1.0 -0.5321307814
O  O88  1  0.19500000  0.47198000  0.91555000  1.0 -0.5321307814
O  O89  1  0.08445000  0.69500000  0.02802000  1.0 -0.5321307814
O  O90  1  0.58445000  0.80500000  0.97198000  1.0 -0.5321307814
O  O91  1  0.41555000  0.30500000  0.52802000  1.0 -0.5321307814
O  O92  1  0.91555000  0.19500000  0.47198000  1.0 -0.5321307814
O  O93  1  0.02802000  0.08445000  0.69500000  1.0 -0.5321307814
O  O94  1  0.97198000  0.58445000  0.80500000  1.0 -0.5321307814
O  O95  1  0.52802000  0.41555000  0.30500000  1.0 -0.5321307814
O  O96  1  0.47198000  0.91555000  0.19500000  1.0 -0.5321307814
O  O97  1  0.33787000  0.01986000  0.97528000  1.0 -0.5860833749
O  O98  1  0.16213000  0.98014000  0.47528000  1.0 -0.5860833749
O  O99  1  0.66213000  0.51986000  0.52472000  1.0 -0.5860833749
O  O100  1  0.83787000  0.48014000  0.02472000  1.0 -0.5860833749
O  O101  1  0.97528000  0.33787000  0.01986000  1.0 -0.5860833749
O  O102  1  0.47528000  0.16213000  0.98014000  1.0 -0.5860833749
O  O103  1  0.52472000  0.66213000  0.51986000  1.0 -0.5860833749
O  O104  1  0.02472000  0.83787000  0.48014000  1.0 -0.5860833749
O  O105  1  0.01986000  0.97528000  0.33787000  1.0 -0.5860833749
O  O106  1  0.98014000  0.47528000  0.16213000  1.0 -0.5860833749
O  O107  1  0.51986000  0.52472000  0.66213000  1.0 -0.5860833749
O  O108  1  0.48014000  0.02472000  0.83787000  1.0 -0.5860833749
O  O109  1  0.66213000  0.98014000  0.02472000  1.0 -0.5860833749
O  O110  1  0.83787000  0.01986000  0.52472000  1.0 -0.5860833749
O  O111  1  0.33787000  0.48014000  0.47528000  1.0 -0.5860833749
O  O112  1  0.16213000  0.51986000  0.97528000  1.0 -0.5860833749
O  O113  1  0.02472000  0.66213000  0.98014000  1.0 -0.5860833749
O  O114  1  0.52472000  0.83787000  0.01986000  1.0 -0.5860833749
O  O115  1  0.47528000  0.33787000  0.48014000  1.0 -0.5860833749
O  O116  1  0.97528000  0.16213000  0.51986000  1.0 -0.5860833749
O  O117  1  0.98014000  0.02472000  0.66213000  1.0 -0.5860833749
O  O118  1  0.01986000  0.52472000  0.83787000  1.0 -0.5860833749
O  O119  1  0.48014000  0.47528000  0.33787000  1.0 -0.5860833749
O  O120  1  0.51986000  0.97528000  0.16213000  1.0 -0.5860833749
O  O121  1  0.29007000  0.00810000  0.96091000  1.0 -0.4736250044
O  O122  1  0.20993000  0.99190000  0.46091000  1.0 -0.4754230106
O  O123  1  0.70993000  0.50810000  0.53909000  1.0 -0.4736250044
O  O124  1  0.79007000  0.49190000  0.03909000  1.0 -0.4736250044
O  O125  1  0.96091000  0.29007000  0.00810000  1.0 -0.4736250044
O  O126  1  0.46091000  0.20993000  0.99190000  1.0 -0.4736250044
O  O127  1  0.53909000  0.70993000  0.50810000  1.0 -0.4736250044
O  O128  1  0.03909000  0.79007000  0.49190000  1.0 -0.4754230106
O  O129  1  0.00810000  0.96091000  0.29007000  1.0 -0.4754230106
O  O130  1  0.99190000  0.46091000  0.20993000  1.0 -0.4736250044
O  O131  1  0.50810000  0.53909000  0.70993000  1.0 -0.4736250044
O  O132  1  0.49190000  0.03909000  0.79007000  1.0 -0.4736250044
O  O133  1  0.70993000  0.99190000  0.03909000  1.0 -0.4754230106
O  O134  1  0.79007000  0.00810000  0.53909000  1.0 -0.4736250044
O  O135  1  0.29007000  0.49190000  0.46091000  1.0 -0.4736250044
O  O136  1  0.20993000  0.50810000  0.96091000  1.0 -0.4736250044
O  O137  1  0.03909000  0.70993000  0.99190000  1.0 -0.4736250044
O  O138  1  0.53909000  0.79007000  0.00810000  1.0 -0.4736250044
O  O139  1  0.46091000  0.29007000  0.49190000  1.0 -0.4736250044
O  O140  1  0.96091000  0.20993000  0.50810000  1.0 -0.4736250044
O  O141  1  0.99190000  0.03909000  0.70993000  1.0 -0.4736250044
O  O142  1  0.00810000  0.53909000  0.79007000  1.0 -0.4736250044
O  O143  1  0.49190000  0.46091000  0.29007000  1.0 -0.4736250044
O  O144  1  0.50810000  0.96091000  0.20993000  1.0 -0.4736250044
O  O145  1  0.43398000  0.96205000  0.14197000  1.0 -0.5468395451
O  O146  1  0.06602000  0.03795000  0.64197000  1.0 -0.5468395451
O  O147  1  0.56602000  0.46205000  0.35803000  1.0 -0.5468395451
O  O148  1  0.93398000  0.53795000  0.85803000  1.0 -0.5468395451
O  O149  1  0.14197000  0.43398000  0.96205000  1.0 -0.5468395451
O  O150  1  0.64197000  0.06602000  0.03795000  1.0 -0.5468395451
O  O151  1  0.35803000  0.56602000  0.46205000  1.0 -0.5468395451
O  O152  1  0.85803000  0.93398000  0.53795000  1.0 -0.5468395451
O  O153  1  0.96205000  0.14197000  0.43398000  1.0 -0.5468395451
O  O154  1  0.03795000  0.64197000  0.06602000  1.0 -0.5468395451
O  O155  1  0.46205000  0.35803000  0.56602000  1.0 -0.5468395451
O  O156  1  0.53795000  0.85803000  0.93398000  1.0 -0.5468395451
O  O157  1  0.56602000  0.03795000  0.85803000  1.0 -0.5468395451
O  O158  1  0.93398000  0.96205000  0.35803000  1.0 -0.5468395451
O  O159  1  0.43398000  0.53795000  0.64197000  1.0 -0.5468395451
O  O160  1  0.06602000  0.46205000  0.14197000  1.0 -0.5468395451
O  O161  1  0.85803000  0.56602000  0.03795000  1.0 -0.5468395451
O  O162  1  0.35803000  0.93398000  0.96205000  1.0 -0.5468395451
O  O163  1  0.64197000  0.43398000  0.53795000  1.0 -0.5468395451
O  O164  1  0.14197000  0.06602000  0.46205000  1.0 -0.5468395451
O  O165  1  0.03795000  0.85803000  0.56602000  1.0 -0.5468395451
O  O166  1  0.96205000  0.35803000  0.93398000  1.0 -0.5468395451
O  O167  1  0.53795000  0.64197000  0.43398000  1.0 -0.5468395451
O  O168  1  0.46205000  0.14197000  0.06602000  1.0 -0.5468395451
O  O169  1  0.42635000  0.95723000  0.19030000  1.0 -0.4950362691
O  O170  1  0.07365000  0.04277000  0.69030000  1.0 -0.4928407565
O  O171  1  0.57365000  0.45723000  0.30970000  1.0 -0.4928407565
O  O172  1  0.92635000  0.54277000  0.80970000  1.0 -0.4928407565
O  O173  1  0.19030000  0.42635000  0.95723000  1.0 -0.4928407565
O  O174  1  0.69030000  0.07365000  0.04277000  1.0 -0.4928407565
O  O175  1  0.30970000  0.57365000  0.45723000  1.0 -0.4928407565
O  O176  1  0.80970000  0.92635000  0.54277000  1.0 -0.4928407565
O  O177  1  0.95723000  0.19030000  0.42635000  1.0 -0.4950362691
O  O178  1  0.04277000  0.69030000  0.07365000  1.0 -0.4928407565
O  O179  1  0.45723000  0.30970000  0.57365000  1.0 -0.4928407565
O  O180  1  0.54277000  0.80970000  0.92635000  1.0 -0.4928407565
O  O181  1  0.57365000  0.04277000  0.80970000  1.0 -0.4928407565
O  O182  1  0.92635000  0.95723000  0.30970000  1.0 -0.4928407565
O  O183  1  0.42635000  0.54277000  0.69030000  1.0 -0.4928407565
O  O184  1  0.07365000  0.45723000  0.19030000  1.0 -0.4928407565
O  O185  1  0.80970000  0.57365000  0.04277000  1.0 -0.4928407565
O  O186  1  0.30970000  0.92635000  0.95723000  1.0 -0.4928407565
O  O187  1  0.69030000  0.42635000  0.54277000  1.0 -0.4928407565
O  O188  1  0.19030000  0.07365000  0.45723000  1.0 -0.4928407565
O  O189  1  0.04277000  0.80970000  0.57365000  1.0 -0.4928407565
O  O190  1  0.95723000  0.30970000  0.92635000  1.0 -0.4928407565
O  O191  1  0.54277000  0.69030000  0.42635000  1.0 -0.4928407565
O  O192  1  0.45723000  0.19030000  0.07365000  1.0 -0.4928407565
O  O193  1  0.25170000  0.95680000  0.95070000  1.0 -0.3310702137
O  O194  1  0.24830000  0.04320000  0.45070000  1.0 -0.3310702137
O  O195  1  0.74830000  0.45680000  0.54930000  1.0 -0.3457919309
O  O196  1  0.75170000  0.54320000  0.04930000  1.0 -0.3310702137
O  O197  1  0.95070000  0.25170000  0.95680000  1.0 -0.3310702137
O  O198  1  0.45070000  0.24830000  0.04320000  1.0 -0.3310702137
O  O199  1  0.54930000  0.74830000  0.45680000  1.0 -0.3457919309
O  O200  1  0.04930000  0.75170000  0.54320000  1.0 -0.3310702137
O  O201  1  0.95680000  0.95070000  0.25170000  1.0 -0.3310702137
O  O202  1  0.04320000  0.45070000  0.24830000  1.0 -0.3310702137
O  O203  1  0.45680000  0.54930000  0.74830000  1.0 -0.3457919309
O  O204  1  0.54320000  0.04930000  0.75170000  1.0 -0.3310702137
O  O205  1  0.74830000  0.04320000  0.04930000  1.0 -0.3310702137
O  O206  1  0.75170000  0.95680000  0.54930000  1.0 -0.3310702137
O  O207  1  0.25170000  0.54320000  0.45070000  1.0 -0.3310702137
O  O208  1  0.24830000  0.45680000  0.95070000  1.0 -0.3310702137
O  O209  1  0.04930000  0.74830000  0.04320000  1.0 -0.3310702137
O  O210  1  0.54930000  0.75170000  0.95680000  1.0 -0.3310702137
O  O211  1  0.45070000  0.25170000  0.54320000  1.0 -0.3310702137
O  O212  1  0.95070000  0.24830000  0.45680000  1.0 -0.3310702137
O  O213  1  0.04320000  0.04930000  0.74830000  1.0 -0.3310702137
O  O214  1  0.95680000  0.54930000  0.75170000  1.0 -0.3310702137
O  O215  1  0.54320000  0.45070000  0.25170000  1.0 -0.3310702137
O  O216  1  0.45680000  0.95070000  0.24830000  1.0 -0.3310702137
O  O217  1  0.39568000  0.98660000  0.97810000  1.0 -0.4548822293
O  O218  1  0.10432000  0.01340000  0.47810000  1.0 -0.4581599829
O  O219  1  0.60432000  0.48660000  0.52190000  1.0 -0.4581599829
O  O220  1  0.89568000  0.51340000  0.02190000  1.0 -0.4581599829
O  O221  1  0.97810000  0.39568000  0.98660000  1.0 -0.4548822293
O  O222  1  0.47810000  0.10432000  0.01340000  1.0 -0.4581599829
O  O223  1  0.52190000  0.60432000  0.48660000  1.0 -0.4581599829
O  O224  1  0.02190000  0.89568000  0.51340000  1.0 -0.4581599829
O  O225  1  0.98660000  0.97810000  0.39568000  1.0 -0.4581599829
O  O226  1  0.01340000  0.47810000  0.10432000  1.0 -0.4581599829
O  O227  1  0.48660000  0.52190000  0.60432000  1.0 -0.4581599829
O  O228  1  0.51340000  0.02190000  0.89568000  1.0 -0.4581599829
O  O229  1  0.60432000  0.01340000  0.02190000  1.0 -0.4581599829
O  O230  1  0.89568000  0.98660000  0.52190000  1.0 -0.4736250044
O  O231  1  0.39568000  0.51340000  0.47810000  1.0 -0.4581599829
O  O232  1  0.10432000  0.48660000  0.97810000  1.0 -0.4581599829
O  O233  1  0.02190000  0.60432000  0.01340000  1.0 -0.4581599829
O  O234  1  0.52190000  0.89568000  0.98660000  1.0 -0.4736250044
O  O235  1  0.47810000  0.39568000  0.51340000  1.0 -0.4581599829
O  O236  1  0.97810000  0.10432000  0.48660000  1.0 -0.4581599829
O  O237  1  0.01340000  0.02190000  0.60432000  1.0 -0.4581599829
O  O238  1  0.98660000  0.52190000  0.89568000  1.0 -0.4736250044
O  O239  1  0.51340000  0.47810000  0.39568000  1.0 -0.4581599829
O  O240  1  0.48660000  0.97810000  0.10432000  1.0 -0.4581599829
