# DDEC6 charges by PACMAN v1.1 (https://github.com/mtap-research/PACMAN-charge/)
data_ic502643m_si_011_ASR_pacman
_symmetry_space_group_name_H-M   'P 1'
_cell_length_a   34.98900000
_cell_length_b   34.98900000
_cell_length_c   10.27400000
_cell_angle_alpha   90.00000000
_cell_angle_beta   90.00000000
_cell_angle_gamma   90.00000000
_symmetry_Int_Tables_number   1
_chemical_formula_structural   Zn4H25C49O15
_chemical_formula_sum   'Zn16 H100 C196 O60'
_cell_volume   12577.74026315
_cell_formula_units_Z   4
loop_
 _symmetry_equiv_pos_site_id
 _symmetry_equiv_pos_as_xyz
  1  'x, y, z'
loop_
 _atom_site_type_symbol
 _atom_site_label
 _atom_site_symmetry_multiplicity
 _atom_site_fract_x
 _atom_site_fract_y
 _atom_site_fract_z
 _atom_site_occupancy
 _atom_site_charge
Zn  Zn1  1  0.17730000  0.17730000  0.14659000  1.0 0.8944231248
Zn  Zn2  1  0.67730000  0.32270000  0.64659000  1.0 0.8944231248
Zn  Zn3  1  0.82270000  0.82270000  0.14659000  1.0 0.8944231248
Zn  Zn4  1  0.32270000  0.67730000  0.64659000  1.0 0.8944231248
Zn  Zn5  1  0.32270000  0.67730000  0.35341000  1.0 0.8944231248
Zn  Zn6  1  0.17730000  0.17730000  0.85341000  1.0 0.8944231248
Zn  Zn7  1  0.67730000  0.32270000  0.35341000  1.0 0.8944231248
Zn  Zn8  1  0.82270000  0.82270000  0.85341000  1.0 0.8944231248
Zn  Zn9  1  0.09851000  0.16350000  0.00000000  1.0 0.9413468218
Zn  Zn10  1  0.66350000  0.40149000  0.50000000  1.0 0.9413468218
Zn  Zn11  1  0.90149000  0.83650000  0.00000000  1.0 0.9413468218
Zn  Zn12  1  0.33650000  0.59851000  0.50000000  1.0 0.9413468218
Zn  Zn13  1  0.40149000  0.66350000  0.50000000  1.0 0.9413468218
Zn  Zn14  1  0.16350000  0.09851000  0.00000000  1.0 0.9413468218
Zn  Zn15  1  0.59851000  0.33650000  0.50000000  1.0 0.9413468218
Zn  Zn16  1  0.83650000  0.90149000  0.00000000  1.0 0.9413468218
H  H1  1  0.12180000  0.18950000  0.50000000  1.0 0.1268632935
H  H2  1  0.68950000  0.37820000  0.00000000  1.0 0.1268632935
H  H3  1  0.87820000  0.81050000  0.50000000  1.0 0.1268632935
H  H4  1  0.31050000  0.62180000  0.00000000  1.0 0.1268632935
H  H5  1  0.37820000  0.68950000  0.00000000  1.0 0.1268632935
H  H6  1  0.18950000  0.12180000  0.50000000  1.0 0.1268632935
H  H7  1  0.62180000  0.31050000  0.00000000  1.0 0.1268632935
H  H8  1  0.81050000  0.87820000  0.50000000  1.0 0.1268632935
H  H9  1  0.02770000  0.21890000  0.30510000  1.0 0.1108102217
H  H10  1  0.71890000  0.47230000  0.80510000  1.0 0.1108102217
H  H11  1  0.97230000  0.78110000  0.30510000  1.0 0.1108102217
H  H12  1  0.28110000  0.52770000  0.80510000  1.0 0.1108102217
H  H13  1  0.47230000  0.71890000  0.19490000  1.0 0.1108102217
H  H14  1  0.21890000  0.02770000  0.69490000  1.0 0.1108102217
H  H15  1  0.52770000  0.28110000  0.19490000  1.0 0.1108102217
H  H16  1  0.78110000  0.97230000  0.69490000  1.0 0.1108102217
H  H17  1  0.97230000  0.78110000  0.69490000  1.0 0.1108102217
H  H18  1  0.28110000  0.52770000  0.19490000  1.0 0.1108102217
H  H19  1  0.02770000  0.21890000  0.69490000  1.0 0.1108102217
H  H20  1  0.71890000  0.47230000  0.19490000  1.0 0.1108102217
H  H21  1  0.52770000  0.28110000  0.80510000  1.0 0.1108102217
H  H22  1  0.78110000  0.97230000  0.30510000  1.0 0.1108102217
H  H23  1  0.47230000  0.71890000  0.80510000  1.0 0.1108102217
H  H24  1  0.21890000  0.02770000  0.30510000  1.0 0.1108102217
H  H25  1  0.86040000  0.29250000  0.31810000  1.0 0.1108102217
H  H26  1  0.79250000  0.63960000  0.81810000  1.0 0.1108102217
H  H27  1  0.13960000  0.70750000  0.31810000  1.0 0.1108102217
H  H28  1  0.20750000  0.36040000  0.81810000  1.0 0.1108102217
H  H29  1  0.63960000  0.79250000  0.18190000  1.0 0.1108102217
H  H30  1  0.29250000  0.86040000  0.68190000  1.0 0.1108102217
H  H31  1  0.36040000  0.20750000  0.18190000  1.0 0.1108102217
H  H32  1  0.70750000  0.13960000  0.68190000  1.0 0.1108102217
H  H33  1  0.13960000  0.70750000  0.68190000  1.0 0.1108102217
H  H34  1  0.20750000  0.36040000  0.18190000  1.0 0.1108102217
H  H35  1  0.86040000  0.29250000  0.68190000  1.0 0.1108102217
H  H36  1  0.79250000  0.63960000  0.18190000  1.0 0.1108102217
H  H37  1  0.36040000  0.20750000  0.81810000  1.0 0.1108102217
H  H38  1  0.70750000  0.13960000  0.31810000  1.0 0.1108102217
H  H39  1  0.63960000  0.79250000  0.81810000  1.0 0.1108102217
H  H40  1  0.29250000  0.86040000  0.31810000  1.0 0.1108102217
H  H41  1  0.79790000  0.30830000  0.30910000  1.0 0.1268632935
H  H42  1  0.80830000  0.70210000  0.80910000  1.0 0.1268632935
H  H43  1  0.20210000  0.69170000  0.30910000  1.0 0.1268632935
H  H44  1  0.19170000  0.29790000  0.80910000  1.0 0.1268632935
H  H45  1  0.70210000  0.80830000  0.19090000  1.0 0.1268632935
H  H46  1  0.30830000  0.79790000  0.69090000  1.0 0.1268632935
H  H47  1  0.29790000  0.19170000  0.19090000  1.0 0.1268632935
H  H48  1  0.69170000  0.20210000  0.69090000  1.0 0.1268632935
H  H49  1  0.20210000  0.69170000  0.69090000  1.0 0.1268632935
H  H50  1  0.19170000  0.29790000  0.19090000  1.0 0.1268632935
H  H51  1  0.79790000  0.30830000  0.69090000  1.0 0.1268632935
H  H52  1  0.80830000  0.70210000  0.19090000  1.0 0.1268632935
H  H53  1  0.29790000  0.19170000  0.80910000  1.0 0.1268632935
H  H54  1  0.69170000  0.20210000  0.30910000  1.0 0.1268632935
H  H55  1  0.70210000  0.80830000  0.80910000  1.0 0.1268632935
H  H56  1  0.30830000  0.79790000  0.30910000  1.0 0.1268632935
H  H57  1  0.98670000  0.27140000  0.65810000  0.5 0.100052965
H  H58  1  0.77140000  0.51330000  0.15810000  0.5 0.100052965
H  H59  1  0.01330000  0.72860000  0.65810000  0.5 0.100052965
H  H60  1  0.22860000  0.48670000  0.15810000  0.5 0.100052965
H  H61  1  0.51330000  0.77140000  0.84190000  0.5 0.100052965
H  H62  1  0.27140000  0.98670000  0.34190000  0.5 0.100052965
H  H63  1  0.48670000  0.22860000  0.84190000  0.5 0.100052965
H  H64  1  0.72860000  0.01330000  0.34190000  0.5 0.100052965
H  H65  1  0.01330000  0.72860000  0.34190000  0.5 0.100052965
H  H66  1  0.22860000  0.48670000  0.84190000  0.5 0.100052965
H  H67  1  0.98670000  0.27140000  0.34190000  0.5 0.100052965
H  H68  1  0.77140000  0.51330000  0.84190000  0.5 0.100052965
H  H69  1  0.48670000  0.22860000  0.15810000  0.5 0.100052965
H  H70  1  0.72860000  0.01330000  0.65810000  0.5 0.100052965
H  H71  1  0.51330000  0.77140000  0.15810000  0.5 0.100052965
H  H72  1  0.27140000  0.98670000  0.65810000  0.5 0.100052965
H  H73  1  0.92130000  0.28820000  0.66620000  0.5 0.0893174106
H  H74  1  0.78820000  0.57870000  0.16620000  0.5 0.0893174106
H  H75  1  0.07870000  0.71180000  0.66620000  0.5 0.0893174106
H  H76  1  0.21180000  0.42130000  0.16620000  0.5 0.0893174106
H  H77  1  0.57870000  0.78820000  0.83380000  0.5 0.0893174106
H  H78  1  0.28820000  0.92130000  0.33380000  0.5 0.0893174106
H  H79  1  0.42130000  0.21180000  0.83380000  0.5 0.0893174106
H  H80  1  0.71180000  0.07870000  0.33380000  0.5 0.0893174106
H  H81  1  0.07870000  0.71180000  0.33380000  0.5 0.0893174106
H  H82  1  0.21180000  0.42130000  0.83380000  0.5 0.0893174106
H  H83  1  0.92130000  0.28820000  0.33380000  0.5 0.0893174106
H  H84  1  0.78820000  0.57870000  0.83380000  0.5 0.0893174106
H  H85  1  0.42130000  0.21180000  0.16620000  0.5 0.0893174106
H  H86  1  0.71180000  0.07870000  0.66620000  0.5 0.0893174106
H  H87  1  0.57870000  0.78820000  0.16620000  0.5 0.0893174106
H  H88  1  0.28820000  0.92130000  0.66620000  0.5 0.0893174106
H  H89  1  0.00000000  0.10000000  0.00000000  0.5 0.0893174106
H  H90  1  0.60000000  0.50000000  0.50000000  0.5 0.0893174106
H  H91  1  0.00000000  0.90000000  0.00000000  0.5 0.0893174106
H  H92  1  0.40000000  0.50000000  0.50000000  0.5 0.0893174106
H  H93  1  0.50000000  0.60000000  0.50000000  0.5 0.0893174106
H  H94  1  0.10000000  0.00000000  0.00000000  0.5 0.0893174106
H  H95  1  0.50000000  0.40000000  0.50000000  0.5 0.0893174106
H  H96  1  0.90000000  0.00000000  0.00000000  0.5 0.0893174106
H  H97  1  0.07270000  0.01620000  0.00000000  0.5 0.1108102217
H  H98  1  0.51620000  0.42730000  0.50000000  0.5 0.1108102217
H  H99  1  0.92730000  0.98380000  0.00000000  0.5 0.1108102217
H  H100  1  0.48380000  0.57270000  0.50000000  0.5 0.1108102217
H  H101  1  0.42730000  0.51620000  0.50000000  0.5 0.1108102217
H  H102  1  0.01620000  0.07270000  0.00000000  0.5 0.1108102217
H  H103  1  0.57270000  0.48380000  0.50000000  0.5 0.1108102217
H  H104  1  0.98380000  0.92730000  0.00000000  0.5 0.1108102217
H  H105  1  0.05600000  0.95110000  0.00000000  0.5 0.1108102217
H  H106  1  0.45110000  0.44400000  0.50000000  0.5 0.1108102217
H  H107  1  0.94400000  0.04890000  0.00000000  0.5 0.1108102217
H  H108  1  0.54890000  0.55600000  0.50000000  0.5 0.1108102217
H  H109  1  0.44400000  0.45110000  0.50000000  0.5 0.1108102217
H  H110  1  0.95110000  0.05600000  0.00000000  0.5 0.1108102217
H  H111  1  0.55600000  0.54890000  0.50000000  0.5 0.1108102217
H  H112  1  0.04890000  0.94400000  0.00000000  0.5 0.1108102217
H  H113  1  0.96750000  0.21740000  0.66620000  0.5 0.100052965
H  H114  1  0.71740000  0.53250000  0.16620000  0.5 0.100052965
H  H115  1  0.03250000  0.78260000  0.66620000  0.5 0.100052965
H  H116  1  0.28260000  0.46750000  0.16620000  0.5 0.100052965
H  H117  1  0.53250000  0.71740000  0.83380000  0.5 0.100052965
H  H118  1  0.21740000  0.96750000  0.33380000  0.5 0.100052965
H  H119  1  0.46750000  0.28260000  0.83380000  0.5 0.100052965
H  H120  1  0.78260000  0.03250000  0.33380000  0.5 0.100052965
H  H121  1  0.03250000  0.78260000  0.33380000  0.5 0.100052965
H  H122  1  0.28260000  0.46750000  0.83380000  0.5 0.100052965
H  H123  1  0.96750000  0.21740000  0.33380000  0.5 0.100052965
H  H124  1  0.71740000  0.53250000  0.83380000  0.5 0.100052965
H  H125  1  0.46750000  0.28260000  0.16620000  0.5 0.100052965
H  H126  1  0.78260000  0.03250000  0.66620000  0.5 0.100052965
H  H127  1  0.53250000  0.71740000  0.16620000  0.5 0.100052965
H  H128  1  0.21740000  0.96750000  0.66620000  0.5 0.100052965
H  H129  1  0.90680000  0.23200000  0.68170000  0.5 0.100052965
H  H130  1  0.73200000  0.59320000  0.18170000  0.5 0.100052965
H  H131  1  0.09320000  0.76800000  0.68170000  0.5 0.100052965
H  H132  1  0.26800000  0.40680000  0.18170000  0.5 0.100052965
H  H133  1  0.59320000  0.73200000  0.81830000  0.5 0.100052965
H  H134  1  0.23200000  0.90680000  0.31830000  0.5 0.100052965
H  H135  1  0.40680000  0.26800000  0.81830000  0.5 0.100052965
H  H136  1  0.76800000  0.09320000  0.31830000  0.5 0.100052965
H  H137  1  0.09320000  0.76800000  0.31830000  0.5 0.100052965
H  H138  1  0.26800000  0.40680000  0.81830000  0.5 0.100052965
H  H139  1  0.90680000  0.23200000  0.31830000  0.5 0.100052965
H  H140  1  0.73200000  0.59320000  0.81830000  0.5 0.100052965
H  H141  1  0.40680000  0.26800000  0.18170000  0.5 0.100052965
H  H142  1  0.76800000  0.09320000  0.68170000  0.5 0.100052965
H  H143  1  0.59320000  0.73200000  0.18170000  0.5 0.100052965
H  H144  1  0.23200000  0.90680000  0.68170000  0.5 0.100052965
C  C1  1  0.09886000  0.19290000  0.26130000  1.0 0.5857498063
C  C2  1  0.69290000  0.40114000  0.76130000  1.0 0.5857498063
C  C3  1  0.90114000  0.80710000  0.26130000  1.0 0.5857498063
C  C4  1  0.30710000  0.59886000  0.76130000  1.0 0.5857498063
C  C5  1  0.40114000  0.69290000  0.23870000  1.0 0.5857498063
C  C6  1  0.19290000  0.09886000  0.73870000  1.0 0.5857498063
C  C7  1  0.59886000  0.30710000  0.23870000  1.0 0.5857498063
C  C8  1  0.80710000  0.90114000  0.73870000  1.0 0.5857498063
C  C9  1  0.90114000  0.80710000  0.73870000  1.0 0.5857498063
C  C10  1  0.30710000  0.59886000  0.23870000  1.0 0.5857498063
C  C11  1  0.09886000  0.19290000  0.73870000  1.0 0.5857498063
C  C12  1  0.69290000  0.40114000  0.23870000  1.0 0.5857498063
C  C13  1  0.59886000  0.30710000  0.76130000  1.0 0.5857498063
C  C14  1  0.80710000  0.90114000  0.26130000  1.0 0.5857498063
C  C15  1  0.40114000  0.69290000  0.76130000  1.0 0.5857498063
C  C16  1  0.19290000  0.09886000  0.26130000  1.0 0.5857498063
C  C17  1  0.07740000  0.20181000  0.38230000  1.0 -0.0380743971
C  C18  1  0.70181000  0.42260000  0.88230000  1.0 -0.0380743971
C  C19  1  0.92260000  0.79819000  0.38230000  1.0 -0.0380743971
C  C20  1  0.29819000  0.57740000  0.88230000  1.0 -0.0380743971
C  C21  1  0.42260000  0.70181000  0.11770000  1.0 -0.0380743971
C  C22  1  0.20181000  0.07740000  0.61770000  1.0 -0.0380743971
C  C23  1  0.57740000  0.29819000  0.11770000  1.0 -0.0380743971
C  C24  1  0.79819000  0.92260000  0.61770000  1.0 -0.0380743971
C  C25  1  0.92260000  0.79819000  0.61770000  1.0 -0.0380743971
C  C26  1  0.29819000  0.57740000  0.11770000  1.0 -0.0380743971
C  C27  1  0.07740000  0.20181000  0.61770000  1.0 -0.0380743971
C  C28  1  0.70181000  0.42260000  0.11770000  1.0 -0.0380743971
C  C29  1  0.57740000  0.29819000  0.88230000  1.0 -0.0380743971
C  C30  1  0.79819000  0.92260000  0.38230000  1.0 -0.0380743971
C  C31  1  0.42260000  0.70181000  0.88230000  1.0 -0.0380743971
C  C32  1  0.20181000  0.07740000  0.38230000  1.0 -0.0380743971
C  C33  1  0.09609000  0.19636000  0.50000000  1.0 -0.1205095509
C  C34  1  0.69636000  0.40391000  0.00000000  1.0 -0.1205095509
C  C35  1  0.90391000  0.80364000  0.50000000  1.0 -0.1205095509
C  C36  1  0.30364000  0.59609000  0.00000000  1.0 -0.1205095509
C  C37  1  0.40391000  0.69636000  0.00000000  1.0 -0.1205095509
C  C38  1  0.19636000  0.09609000  0.50000000  1.0 -0.1205095509
C  C39  1  0.59609000  0.30364000  0.00000000  1.0 -0.1205095509
C  C40  1  0.80364000  0.90391000  0.50000000  1.0 -0.1205095509
C  C41  1  0.04006000  0.21475000  0.38390000  1.0 -0.1713916963
C  C42  1  0.71475000  0.45994000  0.88390000  1.0 -0.1713916963
C  C43  1  0.95994000  0.78525000  0.38390000  1.0 -0.1713916963
C  C44  1  0.28525000  0.54006000  0.88390000  1.0 -0.1713916963
C  C45  1  0.45994000  0.71475000  0.11610000  1.0 -0.1713916963
C  C46  1  0.21475000  0.04006000  0.61610000  1.0 -0.1713916963
C  C47  1  0.54006000  0.28525000  0.11610000  1.0 -0.1713916963
C  C48  1  0.78525000  0.95994000  0.61610000  1.0 -0.1713916963
C  C49  1  0.95994000  0.78525000  0.61610000  1.0 -0.1713916963
C  C50  1  0.28525000  0.54006000  0.11610000  1.0 -0.1713916963
C  C51  1  0.04006000  0.21475000  0.61610000  1.0 -0.1713916963
C  C52  1  0.71475000  0.45994000  0.11610000  1.0 -0.1713916963
C  C53  1  0.54006000  0.28525000  0.88390000  1.0 -0.1713916963
C  C54  1  0.78525000  0.95994000  0.38390000  1.0 -0.1713916963
C  C55  1  0.45994000  0.71475000  0.88390000  1.0 -0.1713916963
C  C56  1  0.21475000  0.04006000  0.38390000  1.0 -0.1713916963
C  C57  1  0.02013000  0.22110000  0.50000000  1.0 0.0346277667
C  C58  1  0.72110000  0.47987000  0.00000000  1.0 0.0362044615
C  C59  1  0.97987000  0.77890000  0.50000000  1.0 0.0362044615
C  C60  1  0.27890000  0.52013000  0.00000000  1.0 0.0362044615
C  C61  1  0.47987000  0.72110000  0.00000000  1.0 0.0362044615
C  C62  1  0.22110000  0.02013000  0.50000000  1.0 0.0346277667
C  C63  1  0.52013000  0.27890000  0.00000000  1.0 0.0362044615
C  C64  1  0.77890000  0.97987000  0.50000000  1.0 0.0362044615
C  C65  1  0.98230000  0.23670000  0.50000000  1.0 0.0112055083
C  C66  1  0.73670000  0.51770000  0.00000000  1.0 0.0112055083
C  C67  1  0.01770000  0.76330000  0.50000000  1.0 0.0112055083
C  C68  1  0.26330000  0.48230000  0.00000000  1.0 0.0112055083
C  C69  1  0.51770000  0.73670000  0.00000000  1.0 0.0112055083
C  C70  1  0.23670000  0.98230000  0.50000000  1.0 0.0112055083
C  C71  1  0.48230000  0.26330000  0.00000000  1.0 0.0112055083
C  C72  1  0.76330000  0.01770000  0.50000000  1.0 0.0112055083
C  C73  1  0.90660000  0.26480000  0.50000000  1.0 0.0346277667
C  C74  1  0.76480000  0.59340000  0.00000000  1.0 0.0346277667
C  C75  1  0.09340000  0.73520000  0.50000000  1.0 0.0362044615
C  C76  1  0.23520000  0.40660000  0.00000000  1.0 0.0346277667
C  C77  1  0.59340000  0.76480000  0.00000000  1.0 0.0362044615
C  C78  1  0.26480000  0.90660000  0.50000000  1.0 0.0362044615
C  C79  1  0.40660000  0.23520000  0.00000000  1.0 0.0346277667
C  C80  1  0.73520000  0.09340000  0.50000000  1.0 0.0346277667
C  C81  1  0.86710000  0.27918000  0.50000000  1.0 0.0112055083
C  C82  1  0.77918000  0.63290000  0.00000000  1.0 0.0112055083
C  C83  1  0.13290000  0.72082000  0.50000000  1.0 0.0112055083
C  C84  1  0.22082000  0.36710000  0.00000000  1.0 0.0112055083
C  C85  1  0.63290000  0.77918000  0.00000000  1.0 0.0112055083
C  C86  1  0.27918000  0.86710000  0.50000000  1.0 0.0112055083
C  C87  1  0.36710000  0.22082000  0.00000000  1.0 0.0112055083
C  C88  1  0.72082000  0.13290000  0.50000000  1.0 0.0112055083
C  C89  1  0.84700000  0.29133000  0.39600000  1.0 -0.1919352427
C  C90  1  0.79133000  0.65300000  0.89600000  1.0 -0.1919352427
C  C91  1  0.15300000  0.70867000  0.39600000  1.0 -0.1919352427
C  C92  1  0.20867000  0.34700000  0.89600000  1.0 -0.1919352427
C  C93  1  0.65300000  0.79133000  0.10400000  1.0 -0.1919352427
C  C94  1  0.29133000  0.84700000  0.60400000  1.0 -0.1919352427
C  C95  1  0.34700000  0.20867000  0.10400000  1.0 -0.1919352427
C  C96  1  0.70867000  0.15300000  0.60400000  1.0 -0.1919352427
C  C97  1  0.15300000  0.70867000  0.60400000  1.0 -0.1919352427
C  C98  1  0.20867000  0.34700000  0.10400000  1.0 -0.1919352427
C  C99  1  0.84700000  0.29133000  0.60400000  1.0 -0.1919352427
C  C100  1  0.79133000  0.65300000  0.10400000  1.0 -0.1919352427
C  C101  1  0.34700000  0.20867000  0.89600000  1.0 -0.1919352427
C  C102  1  0.70867000  0.15300000  0.39600000  1.0 -0.1919352427
C  C103  1  0.65300000  0.79133000  0.89600000  1.0 -0.1919352427
C  C104  1  0.29133000  0.84700000  0.39600000  1.0 -0.1919352427
C  C105  1  0.80900000  0.30233000  0.38900000  1.0 -0.0925360281
C  C106  1  0.80233000  0.69100000  0.88900000  1.0 -0.0925360281
C  C107  1  0.19100000  0.69767000  0.38900000  1.0 -0.0925360281
C  C108  1  0.19767000  0.30900000  0.88900000  1.0 -0.0925360281
C  C109  1  0.69100000  0.80233000  0.11100000  1.0 -0.0925360281
C  C110  1  0.30233000  0.80900000  0.61100000  1.0 -0.0925360281
C  C111  1  0.30900000  0.19767000  0.11100000  1.0 -0.0925360281
C  C112  1  0.69767000  0.19100000  0.61100000  1.0 -0.0925360281
C  C113  1  0.19100000  0.69767000  0.61100000  1.0 -0.0925360281
C  C114  1  0.19767000  0.30900000  0.11100000  1.0 -0.0925360281
C  C115  1  0.80900000  0.30233000  0.61100000  1.0 -0.0925360281
C  C116  1  0.80233000  0.69100000  0.11100000  1.0 -0.0925360281
C  C117  1  0.30900000  0.19767000  0.88900000  1.0 -0.0925360281
C  C118  1  0.69767000  0.19100000  0.38900000  1.0 -0.0925360281
C  C119  1  0.69100000  0.80233000  0.88900000  1.0 -0.0925360281
C  C120  1  0.30233000  0.80900000  0.38900000  1.0 -0.0925360281
C  C121  1  0.78800000  0.30433000  0.50000000  1.0 -0.1071564603
C  C122  1  0.80433000  0.71200000  0.00000000  1.0 -0.1071564603
C  C123  1  0.21200000  0.69567000  0.50000000  1.0 -0.1071564603
C  C124  1  0.19567000  0.28800000  0.00000000  1.0 -0.1071564603
C  C125  1  0.71200000  0.80433000  0.00000000  1.0 -0.1071564603
C  C126  1  0.30433000  0.78800000  0.50000000  1.0 -0.1071564603
C  C127  1  0.28800000  0.19567000  0.00000000  1.0 -0.1071564603
C  C128  1  0.69567000  0.21200000  0.50000000  1.0 -0.1071564603
C  C129  1  0.75000000  0.31533000  0.50000000  1.0 0.4895856058
C  C130  1  0.81533000  0.75000000  0.00000000  1.0 0.4895856058
C  C131  1  0.25000000  0.68467000  0.50000000  1.0 0.4895856058
C  C132  1  0.18467000  0.25000000  0.00000000  1.0 0.4895856058
C  C133  1  0.75000000  0.81533000  0.00000000  1.0 0.4895856058
C  C134  1  0.31533000  0.75000000  0.50000000  1.0 0.4895856058
C  C135  1  0.25000000  0.18467000  0.00000000  1.0 0.4895856058
C  C136  1  0.68467000  0.25000000  0.50000000  1.0 0.4895856058
C  C137  1  0.08170000  0.08170000  0.00000000  1.0 0.4628775244
C  C138  1  0.58170000  0.41830000  0.50000000  1.0 0.4628775244
C  C139  1  0.91830000  0.91830000  0.00000000  1.0 0.4628775244
C  C140  1  0.41830000  0.58170000  0.50000000  1.0 0.4628775244
C  C141  1  0.03840000  0.05620000  0.00000000  1.0 -0.0672620829
C  C142  1  0.55620000  0.46160000  0.50000000  1.0 -0.0672620829
C  C143  1  0.96160000  0.94380000  0.00000000  1.0 -0.0672620829
C  C144  1  0.44380000  0.53840000  0.50000000  1.0 -0.0672620829
C  C145  1  0.46160000  0.55620000  0.50000000  1.0 -0.0672620829
C  C146  1  0.05620000  0.03840000  0.00000000  1.0 -0.0672620829
C  C147  1  0.53840000  0.44380000  0.50000000  1.0 -0.0672620829
C  C148  1  0.94380000  0.96160000  0.00000000  1.0 -0.0672620829
C  C149  1  0.96910000  0.26310000  0.59210000  0.5 -0.1205095509
C  C150  1  0.76310000  0.53090000  0.09210000  0.5 -0.1205095509
C  C151  1  0.03090000  0.73690000  0.59210000  0.5 -0.1205095509
C  C152  1  0.23690000  0.46910000  0.09210000  0.5 -0.1205095509
C  C153  1  0.53090000  0.76310000  0.90790000  0.5 -0.1205095509
C  C154  1  0.26310000  0.96910000  0.40790000  0.5 -0.1205095509
C  C155  1  0.46910000  0.23690000  0.90790000  0.5 -0.1205095509
C  C156  1  0.73690000  0.03090000  0.40790000  0.5 -0.1205095509
C  C157  1  0.03090000  0.73690000  0.40790000  0.5 -0.1205095509
C  C158  1  0.23690000  0.46910000  0.90790000  0.5 -0.1205095509
C  C159  1  0.96910000  0.26310000  0.40790000  0.5 -0.1205095509
C  C160  1  0.76310000  0.53090000  0.90790000  0.5 -0.1205095509
C  C161  1  0.46910000  0.23690000  0.09210000  0.5 -0.1205095509
C  C162  1  0.73690000  0.03090000  0.59210000  0.5 -0.1205095509
C  C163  1  0.53090000  0.76310000  0.09210000  0.5 -0.1205095509
C  C164  1  0.26310000  0.96910000  0.59210000  0.5 -0.1205095509
C  C165  1  0.92980000  0.27200000  0.59650000  0.5 -0.064222558
C  C166  1  0.77200000  0.57020000  0.09650000  0.5 -0.064222558
C  C167  1  0.07020000  0.72800000  0.59650000  0.5 -0.064222558
C  C168  1  0.22800000  0.42980000  0.09650000  0.5 -0.064222558
C  C169  1  0.57020000  0.77200000  0.90350000  0.5 -0.064222558
C  C170  1  0.27200000  0.92980000  0.40350000  0.5 -0.064222558
C  C171  1  0.42980000  0.22800000  0.90350000  0.5 -0.064222558
C  C172  1  0.72800000  0.07020000  0.40350000  0.5 -0.064222558
C  C173  1  0.07020000  0.72800000  0.40350000  0.5 -0.064222558
C  C174  1  0.22800000  0.42980000  0.90350000  0.5 -0.064222558
C  C175  1  0.92980000  0.27200000  0.40350000  0.5 -0.064222558
C  C176  1  0.77200000  0.57020000  0.90350000  0.5 -0.064222558
C  C177  1  0.42980000  0.22800000  0.09650000  0.5 -0.064222558
C  C178  1  0.72800000  0.07020000  0.59650000  0.5 -0.064222558
C  C179  1  0.57020000  0.77200000  0.09650000  0.5 -0.064222558
C  C180  1  0.27200000  0.92980000  0.59650000  0.5 -0.064222558
C  C181  1  0.00230000  0.07330000  0.00000000  0.5 -0.1071564603
C  C182  1  0.57330000  0.49770000  0.50000000  0.5 -0.1071564603
C  C183  1  0.99770000  0.92670000  0.00000000  0.5 -0.1071564603
C  C184  1  0.42670000  0.50230000  0.50000000  0.5 -0.1071564603
C  C185  1  0.49770000  0.57330000  0.50000000  0.5 -0.1071564603
C  C186  1  0.07330000  0.00230000  0.00000000  0.5 -0.1071564603
C  C187  1  0.50230000  0.42670000  0.50000000  0.5 -0.1071564603
C  C188  1  0.92670000  0.99770000  0.00000000  0.5 -0.1071564603
C  C189  1  0.04670000  0.01620000  0.00000000  0.5 0.0471319714
C  C190  1  0.51620000  0.45330000  0.50000000  0.5 0.0471319714
C  C191  1  0.95330000  0.98380000  0.00000000  0.5 0.0471319714
C  C192  1  0.48380000  0.54670000  0.50000000  0.5 0.0471319714
C  C193  1  0.45330000  0.51620000  0.50000000  0.5 0.0471319714
C  C194  1  0.01620000  0.04670000  0.00000000  0.5 0.0471319714
C  C195  1  0.54670000  0.48380000  0.50000000  0.5 0.0471319714
C  C196  1  0.98380000  0.95330000  0.00000000  0.5 0.0471319714
C  C197  1  0.01780000  0.99240000  0.00000000  0.5 0.0185676263
C  C198  1  0.49240000  0.48220000  0.50000000  0.5 0.0185676263
C  C199  1  0.98220000  0.00760000  0.00000000  0.5 0.0185676263
C  C200  1  0.50760000  0.51780000  0.50000000  0.5 0.0185676263
C  C201  1  0.48220000  0.49240000  0.50000000  0.5 0.0185676263
C  C202  1  0.99240000  0.01780000  0.00000000  0.5 0.0185676263
C  C203  1  0.51780000  0.50760000  0.50000000  0.5 0.0185676263
C  C204  1  0.00760000  0.98220000  0.00000000  0.5 0.0185676263
C  C205  1  0.04670000  0.97610000  0.00000000  0.5 -0.0512528046
C  C206  1  0.47610000  0.45330000  0.50000000  0.5 -0.0512528046
C  C207  1  0.95330000  0.02390000  0.00000000  0.5 -0.0512528046
C  C208  1  0.52390000  0.54670000  0.50000000  0.5 -0.0512528046
C  C209  1  0.45330000  0.47610000  0.50000000  0.5 -0.0512528046
C  C210  1  0.97610000  0.04670000  0.00000000  0.5 -0.0512528046
C  C211  1  0.54670000  0.52390000  0.50000000  0.5 -0.0512528046
C  C212  1  0.02390000  0.95330000  0.00000000  0.5 -0.0512528046
C  C213  1  0.95660000  0.23020000  0.59250000  0.5 -0.0512528046
C  C214  1  0.73020000  0.54340000  0.09250000  0.5 -0.0512528046
C  C215  1  0.04340000  0.76980000  0.59250000  0.5 -0.0512528046
C  C216  1  0.26980000  0.45660000  0.09250000  0.5 -0.0512528046
C  C217  1  0.54340000  0.73020000  0.90750000  0.5 -0.0512528046
C  C218  1  0.23020000  0.95660000  0.40750000  0.5 -0.0512528046
C  C219  1  0.45660000  0.26980000  0.90750000  0.5 -0.0512528046
C  C220  1  0.76980000  0.04340000  0.40750000  0.5 -0.0512528046
C  C221  1  0.04340000  0.76980000  0.40750000  0.5 -0.0512528046
C  C222  1  0.26980000  0.45660000  0.90750000  0.5 -0.0512528046
C  C223  1  0.95660000  0.23020000  0.40750000  0.5 -0.0512528046
C  C224  1  0.73020000  0.54340000  0.90750000  0.5 -0.0512528046
C  C225  1  0.45660000  0.26980000  0.09250000  0.5 -0.0512528046
C  C226  1  0.76980000  0.04340000  0.59250000  0.5 -0.0512528046
C  C227  1  0.54340000  0.73020000  0.09250000  0.5 -0.0512528046
C  C228  1  0.23020000  0.95660000  0.59250000  0.5 -0.0512528046
C  C229  1  0.91690000  0.23820000  0.59830000  0.5 -0.1413034821
C  C230  1  0.73820000  0.58310000  0.09830000  0.5 -0.1413034821
C  C231  1  0.08310000  0.76180000  0.59830000  0.5 -0.1413034821
C  C232  1  0.26180000  0.41690000  0.09830000  0.5 -0.1413034821
C  C233  1  0.58310000  0.73820000  0.90170000  0.5 -0.1413034821
C  C234  1  0.23820000  0.91690000  0.40170000  0.5 -0.1413034821
C  C235  1  0.41690000  0.26180000  0.90170000  0.5 -0.1413034821
C  C236  1  0.76180000  0.08310000  0.40170000  0.5 -0.1413034821
C  C237  1  0.08310000  0.76180000  0.40170000  0.5 -0.1413034821
C  C238  1  0.26180000  0.41690000  0.90170000  0.5 -0.1413034821
C  C239  1  0.91690000  0.23820000  0.40170000  0.5 -0.1413034821
C  C240  1  0.73820000  0.58310000  0.90170000  0.5 -0.1413034821
C  C241  1  0.41690000  0.26180000  0.09830000  0.5 -0.1413034821
C  C242  1  0.76180000  0.08310000  0.59830000  0.5 -0.1413034821
C  C243  1  0.58310000  0.73820000  0.09830000  0.5 -0.1413034821
C  C244  1  0.23820000  0.91690000  0.59830000  0.5 -0.1413034821
O  O1  1  0.13328000  0.19017000  0.26750000  1.0 -0.5146216178
O  O2  1  0.69017000  0.36672000  0.76750000  1.0 -0.5146216178
O  O3  1  0.86672000  0.80983000  0.26750000  1.0 -0.5146216178
O  O4  1  0.30983000  0.63328000  0.76750000  1.0 -0.5146216178
O  O5  1  0.36672000  0.69017000  0.23250000  1.0 -0.5146216178
O  O6  1  0.19017000  0.13328000  0.73250000  1.0 -0.5146216178
O  O7  1  0.63328000  0.30983000  0.23250000  1.0 -0.5146216178
O  O8  1  0.80983000  0.86672000  0.73250000  1.0 -0.5146216178
O  O9  1  0.86672000  0.80983000  0.73250000  1.0 -0.5146216178
O  O10  1  0.30983000  0.63328000  0.23250000  1.0 -0.5146216178
O  O11  1  0.13328000  0.19017000  0.73250000  1.0 -0.5146216178
O  O12  1  0.69017000  0.36672000  0.23250000  1.0 -0.5146216178
O  O13  1  0.63328000  0.30983000  0.76750000  1.0 -0.5146216178
O  O14  1  0.80983000  0.86672000  0.26750000  1.0 -0.5146216178
O  O15  1  0.36672000  0.69017000  0.76750000  1.0 -0.5146216178
O  O16  1  0.19017000  0.13328000  0.26750000  1.0 -0.5146216178
O  O17  1  0.07842000  0.18991000  0.15740000  1.0 -0.5349149728
O  O18  1  0.68991000  0.42158000  0.65740000  1.0 -0.5351882601
O  O19  1  0.92158000  0.81009000  0.15740000  1.0 -0.5349149728
O  O20  1  0.31009000  0.57842000  0.65740000  1.0 -0.5349149728
O  O21  1  0.42158000  0.68991000  0.34260000  1.0 -0.5349149728
O  O22  1  0.18991000  0.07842000  0.84260000  1.0 -0.5349149728
O  O23  1  0.57842000  0.31009000  0.34260000  1.0 -0.5351882601
O  O24  1  0.81009000  0.92158000  0.84260000  1.0 -0.5351882601
O  O25  1  0.92158000  0.81009000  0.84260000  1.0 -0.5351882601
O  O26  1  0.31009000  0.57842000  0.34260000  1.0 -0.5349149728
O  O27  1  0.07842000  0.18991000  0.84260000  1.0 -0.5349149728
O  O28  1  0.68991000  0.42158000  0.34260000  1.0 -0.5349149728
O  O29  1  0.57842000  0.31009000  0.65740000  1.0 -0.5351882601
O  O30  1  0.81009000  0.92158000  0.15740000  1.0 -0.5349149728
O  O31  1  0.42158000  0.68991000  0.65740000  1.0 -0.5349149728
O  O32  1  0.18991000  0.07842000  0.15740000  1.0 -0.5349149728
O  O33  1  0.06961000  0.11270000  0.00000000  1.0 -0.3726671362
O  O34  1  0.61270000  0.43039000  0.50000000  1.0 -0.3726671362
O  O35  1  0.93039000  0.88730000  0.00000000  1.0 -0.3726671362
O  O36  1  0.38730000  0.56961000  0.50000000  1.0 -0.3726671362
O  O37  1  0.43039000  0.61270000  0.50000000  1.0 -0.3726671362
O  O38  1  0.11270000  0.06961000  0.00000000  1.0 -0.3726671362
O  O39  1  0.56961000  0.38730000  0.50000000  1.0 -0.3726671362
O  O40  1  0.88730000  0.93039000  0.00000000  1.0 -0.3726671362
O  O41  1  0.73607000  0.32252000  0.40740000  1.0 -0.3114391739
O  O42  1  0.82252000  0.76393000  0.90740000  1.0 -0.3114391739
O  O43  1  0.26393000  0.67748000  0.40740000  1.0 -0.3114391739
O  O44  1  0.17748000  0.23607000  0.90740000  1.0 -0.3114391739
O  O45  1  0.76393000  0.82252000  0.09260000  1.0 -0.3114391739
O  O46  1  0.32252000  0.73607000  0.59260000  1.0 -0.3114391739
O  O47  1  0.23607000  0.17748000  0.09260000  1.0 -0.3114391739
O  O48  1  0.67748000  0.26393000  0.59260000  1.0 -0.3114391739
O  O49  1  0.26393000  0.67748000  0.59260000  1.0 -0.3114391739
O  O50  1  0.17748000  0.23607000  0.09260000  1.0 -0.3114391739
O  O51  1  0.73607000  0.32252000  0.59260000  1.0 -0.3114391739
O  O52  1  0.82252000  0.76393000  0.09260000  1.0 -0.3114391739
O  O53  1  0.23607000  0.17748000  0.90740000  1.0 -0.3114391739
O  O54  1  0.67748000  0.26393000  0.40740000  1.0 -0.3114391739
O  O55  1  0.76393000  0.82252000  0.90740000  1.0 -0.3114391739
O  O56  1  0.32252000  0.73607000  0.40740000  1.0 -0.3114391739
O  O57  1  0.15179000  0.15179000  0.00000000  1.0 -1.0211534822
O  O58  1  0.65179000  0.34821000  0.50000000  1.0 -1.0211534822
O  O59  1  0.84821000  0.84821000  0.00000000  1.0 -1.0211534822
O  O60  1  0.34821000  0.65179000  0.50000000  1.0 -1.0211534822
