# DDEC6 charges by PACMAN v1.1 (https://github.com/mtap-research/PACMAN-charge/)
data_41557_2017_BFnchem2747_MOESM345_ESM_ASR_pacman
_symmetry_space_group_name_H-M   'P 1'
_cell_length_a   14.96030000
_cell_length_b   21.83840000
_cell_length_c   34.77680000
_cell_angle_alpha   90.00000000
_cell_angle_beta   90.00000000
_cell_angle_gamma   90.00000000
_symmetry_Int_Tables_number   1
_chemical_formula_structural   InH8C16(NO4)2
_chemical_formula_sum   'In16 H128.0 C256.0 N32.0 O128'
_cell_volume   11361.89409094
_cell_formula_units_Z   16
loop_
 _symmetry_equiv_pos_site_id
 _symmetry_equiv_pos_as_xyz
  1  'x, y, z'
loop_
 _atom_site_type_symbol
 _atom_site_label
 _atom_site_symmetry_multiplicity
 _atom_site_fract_x
 _atom_site_fract_y
 _atom_site_fract_z
 _atom_site_occupancy
 _atom_site_charge
In  In1  1  0.87500000  0.37500000  0.67155000  1.0 1.2417586265
In  In2  1  0.87500000  0.87500000  0.17155000  1.0 1.2417586265
In  In3  1  0.37500000  0.37500000  0.17155000  1.0 1.2417586265
In  In4  1  0.37500000  0.87500000  0.67155000  1.0 1.2417586265
In  In5  1  0.12500000  0.62500000  0.92155000  1.0 1.2417586265
In  In6  1  0.12500000  0.12500000  0.42155000  1.0 1.2417586265
In  In7  1  0.62500000  0.62500000  0.42155000  1.0 1.2417586265
In  In8  1  0.62500000  0.12500000  0.92155000  1.0 1.2417586265
In  In9  1  0.87500000  0.37500000  0.07845000  1.0 1.2417586265
In  In10  1  0.87500000  0.87500000  0.57845000  1.0 1.2417586265
In  In11  1  0.37500000  0.37500000  0.57845000  1.0 1.2417586265
In  In12  1  0.37500000  0.87500000  0.07845000  1.0 1.2417586265
In  In13  1  0.12500000  0.62500000  0.32845000  1.0 1.2417586265
In  In14  1  0.12500000  0.12500000  0.82845000  1.0 1.2417586265
In  In15  1  0.62500000  0.62500000  0.82845000  1.0 1.2417586265
In  In16  1  0.62500000  0.12500000  0.32845000  1.0 1.2417586265
H  H7  1  0.56510000  0.29860000  0.76130000  0.11 0.1504816102
H  H8  1  0.62760000  0.32080000  0.72960000  0.11 0.1632716229
H  H19  1  0.56510000  0.79860000  0.26130000  0.11 0.1504816102
H  H20  1  0.62760000  0.82080000  0.22960000  0.11 0.1632716229
H  H31  1  0.06510000  0.29860000  0.26130000  0.11 0.1504816102
H  H32  1  0.12760000  0.32080000  0.22960000  0.11 0.1632716229
H  H43  1  0.06510000  0.79860000  0.76130000  0.11 0.1504816102
H  H44  1  0.12760000  0.82080000  0.72960000  0.11 0.1632716229
H  H55  1  0.18490000  0.45140000  0.76130000  0.11 0.1504816102
H  H56  1  0.12240000  0.42920000  0.72960000  0.11 0.1632716229
H  H67  1  0.18490000  0.95140000  0.26130000  0.11 0.1504816102
H  H68  1  0.12240000  0.92920000  0.22960000  0.11 0.1632716229
H  H79  1  0.68490000  0.45140000  0.26130000  0.11 0.1504816102
H  H80  1  0.62240000  0.42920000  0.22960000  0.11 0.1632716229
H  H91  1  0.68490000  0.95140000  0.76130000  0.11 0.1504816102
H  H92  1  0.62240000  0.92920000  0.72960000  0.11 0.1632716229
H  H103  1  0.81510000  0.70140000  0.01130000  0.11 0.1504816102
H  H104  1  0.87760000  0.67920000  0.97960000  0.11 0.1632716229
H  H115  1  0.81510000  0.20140000  0.51130000  0.11 0.1504816102
H  H116  1  0.87760000  0.17920000  0.47960000  0.11 0.1632716229
H  H127  1  0.31510000  0.70140000  0.51130000  0.11 0.1504816102
H  H128  1  0.37760000  0.67920000  0.47960000  0.11 0.1632716229
H  H139  1  0.31510000  0.20140000  0.01130000  0.11 0.1504816102
H  H140  1  0.37760000  0.17920000  0.97960000  0.11 0.1632716229
H  H151  1  0.43490000  0.54860000  0.01130000  0.11 0.1504816102
H  H152  1  0.37240000  0.57080000  0.97960000  0.11 0.1632716229
H  H163  1  0.43490000  0.04860000  0.51130000  0.11 0.1504816102
H  H164  1  0.37240000  0.07080000  0.47960000  0.11 0.1632716229
H  H175  1  0.93490000  0.54860000  0.51130000  0.11 0.1504816102
H  H176  1  0.87240000  0.57080000  0.47960000  0.11 0.1632716229
H  H187  1  0.93490000  0.04860000  0.01130000  0.11 0.1504816102
H  H188  1  0.87240000  0.07080000  0.97960000  0.11 0.1632716229
H  H199  1  0.18490000  0.29860000  0.98870000  0.11 0.1504816102
H  H200  1  0.12240000  0.32080000  0.02040000  0.11 0.1632716229
H  H211  1  0.18490000  0.79860000  0.48870000  0.11 0.1504816102
H  H212  1  0.12240000  0.82080000  0.52040000  0.11 0.1632716229
H  H223  1  0.68490000  0.29860000  0.48870000  0.11 0.1504816102
H  H224  1  0.62240000  0.32080000  0.52040000  0.11 0.1632716229
H  H235  1  0.68490000  0.79860000  0.98870000  0.11 0.1504816102
H  H236  1  0.62240000  0.82080000  0.02040000  0.11 0.1632716229
H  H247  1  0.56510000  0.45140000  0.98870000  0.11 0.1504816102
H  H248  1  0.62760000  0.42920000  0.02040000  0.11 0.1632716229
H  H259  1  0.56510000  0.95140000  0.48870000  0.11 0.1504816102
H  H260  1  0.62760000  0.92920000  0.52040000  0.11 0.1632716229
H  H271  1  0.06510000  0.45140000  0.48870000  0.11 0.1504816102
H  H272  1  0.12760000  0.42920000  0.52040000  0.11 0.1632716229
H  H283  1  0.06510000  0.95140000  0.98870000  0.11 0.1504816102
H  H284  1  0.12760000  0.92920000  0.02040000  0.11 0.1632716229
H  H295  1  0.43490000  0.70140000  0.23870000  0.11 0.1504816102
H  H296  1  0.37240000  0.67920000  0.27040000  0.11 0.1632716229
H  H307  1  0.43490000  0.20140000  0.73870000  0.11 0.1504816102
H  H308  1  0.37240000  0.17920000  0.77040000  0.11 0.1632716229
H  H319  1  0.93490000  0.70140000  0.73870000  0.11 0.1504816102
H  H320  1  0.87240000  0.67920000  0.77040000  0.11 0.1632716229
H  H331  1  0.93490000  0.20140000  0.23870000  0.11 0.1504816102
H  H332  1  0.87240000  0.17920000  0.27040000  0.11 0.1632716229
H  H343  1  0.81510000  0.54860000  0.23870000  0.11 0.1504816102
H  H344  1  0.87760000  0.57080000  0.27040000  0.11 0.1632716229
H  H355  1  0.81510000  0.04860000  0.73870000  0.11 0.1504816102
H  H356  1  0.87760000  0.07080000  0.77040000  0.11 0.1632716229
H  H367  1  0.31510000  0.54860000  0.73870000  0.11 0.1504816102
H  H368  1  0.37760000  0.57080000  0.77040000  0.11 0.1632716229
H  H379  1  0.31510000  0.04860000  0.23870000  0.11 0.1504816102
H  H380  1  0.37760000  0.07080000  0.27040000  0.11 0.1632716229
H  H1  1  0.57730000  0.33340000  0.76840000  0.14 0.1632716229
H  H2  1  0.64150000  0.34390000  0.73500000  0.14 0.1632716229
H  H13  1  0.57730000  0.83340000  0.26840000  0.14 0.1632716229
H  H14  1  0.64150000  0.84390000  0.23500000  0.14 0.1632716229
H  H25  1  0.07730000  0.33340000  0.26840000  0.14 0.1632716229
H  H26  1  0.14150000  0.34390000  0.23500000  0.14 0.1632716229
H  H37  1  0.07730000  0.83340000  0.76840000  0.14 0.1632716229
H  H38  1  0.14150000  0.84390000  0.73500000  0.14 0.1632716229
H  H49  1  0.17270000  0.41660000  0.76840000  0.14 0.1632716229
H  H50  1  0.10850000  0.40610000  0.73500000  0.14 0.1632716229
H  H61  1  0.17270000  0.91660000  0.26840000  0.14 0.1632716229
H  H62  1  0.10850000  0.90610000  0.23500000  0.14 0.1632716229
H  H73  1  0.67270000  0.41660000  0.26840000  0.14 0.1632716229
H  H74  1  0.60850000  0.40610000  0.23500000  0.14 0.1632716229
H  H85  1  0.67270000  0.91660000  0.76840000  0.14 0.1632716229
H  H86  1  0.60850000  0.90610000  0.73500000  0.14 0.1632716229
H  H97  1  0.82730000  0.66666667  0.01840000  0.14 0.1632716229
H  H98  1  0.89150000  0.65610000  0.98500000  0.14 0.1632716229
H  H109  1  0.82730000  0.16660000  0.51840000  0.14 0.1632716229
H  H110  1  0.89150000  0.15610000  0.48500000  0.14 0.1632716229
H  H121  1  0.32730000  0.66666667  0.51840000  0.14 0.1632716229
H  H122  1  0.39150000  0.65610000  0.48500000  0.14 0.1632716229
H  H133  1  0.32730000  0.16660000  0.01840000  0.14 0.1632716229
H  H134  1  0.39150000  0.15610000  0.98500000  0.14 0.1632716229
H  H145  1  0.42270000  0.58340000  0.01840000  0.14 0.1632716229
H  H146  1  0.35850000  0.59390000  0.98500000  0.14 0.1632716229
H  H157  1  0.42270000  0.08340000  0.51840000  0.14 0.1632716229
H  H158  1  0.35850000  0.09390000  0.48500000  0.14 0.1632716229
H  H169  1  0.92270000  0.58340000  0.51840000  0.14 0.1632716229
H  H170  1  0.85850000  0.59390000  0.48500000  0.14 0.1632716229
H  H181  1  0.92270000  0.08340000  0.01840000  0.14 0.1632716229
H  H182  1  0.85850000  0.09390000  0.98500000  0.14 0.1632716229
H  H193  1  0.17270000  0.33340000  0.98160000  0.14 0.1632716229
H  H194  1  0.10850000  0.34390000  0.01500000  0.14 0.1632716229
H  H205  1  0.17270000  0.83340000  0.48160000  0.14 0.1632716229
H  H206  1  0.10850000  0.84390000  0.51500000  0.14 0.1632716229
H  H217  1  0.67270000  0.33340000  0.48160000  0.14 0.1632716229
H  H218  1  0.60850000  0.34390000  0.51500000  0.14 0.1632716229
H  H229  1  0.67270000  0.83340000  0.98160000  0.14 0.1632716229
H  H230  1  0.60850000  0.84390000  0.01500000  0.14 0.1632716229
H  H241  1  0.57730000  0.41660000  0.98160000  0.14 0.1632716229
H  H242  1  0.64150000  0.40610000  0.01500000  0.14 0.1632716229
H  H253  1  0.57730000  0.91660000  0.48160000  0.14 0.1632716229
H  H254  1  0.64150000  0.90610000  0.51500000  0.14 0.1632716229
H  H265  1  0.07730000  0.41660000  0.48160000  0.14 0.1632716229
H  H266  1  0.14150000  0.40610000  0.51500000  0.14 0.1632716229
H  H277  1  0.07730000  0.91660000  0.98160000  0.14 0.1632716229
H  H278  1  0.14150000  0.90610000  0.01500000  0.14 0.1632716229
H  H289  1  0.42270000  0.66666667  0.23160000  0.14 0.1632716229
H  H290  1  0.35850000  0.65610000  0.26500000  0.14 0.1632716229
H  H301  1  0.42270000  0.16660000  0.73160000  0.14 0.1632716229
H  H302  1  0.35850000  0.15610000  0.76500000  0.14 0.1632716229
H  H313  1  0.92270000  0.66666667  0.73160000  0.14 0.1632716229
H  H314  1  0.85850000  0.65610000  0.76500000  0.14 0.1632716229
H  H325  1  0.92270000  0.16660000  0.23160000  0.14 0.1632716229
H  H326  1  0.85850000  0.15610000  0.26500000  0.14 0.1632716229
H  H337  1  0.82730000  0.58340000  0.23160000  0.14 0.1632716229
H  H338  1  0.89150000  0.59390000  0.26500000  0.14 0.1632716229
H  H349  1  0.82730000  0.08340000  0.73160000  0.14 0.1632716229
H  H350  1  0.89150000  0.09390000  0.76500000  0.14 0.1632716229
H  H361  1  0.32730000  0.58340000  0.73160000  0.14 0.1632716229
H  H362  1  0.39150000  0.59390000  0.76500000  0.14 0.1632716229
H  H373  1  0.32730000  0.08340000  0.23160000  0.14 0.1632716229
H  H374  1  0.39150000  0.09390000  0.26500000  0.14 0.1632716229
H  H9  1  0.96410000  0.22730000  0.80050000  0.34 0.1272885234
H  H10  1  0.95710000  0.26280000  0.76280000  0.34 0.1231048857
H  H21  1  0.96410000  0.72730000  0.30050000  0.34 0.1272885234
H  H22  1  0.95710000  0.76280000  0.26280000  0.34 0.1231048857
H  H33  1  0.46410000  0.22730000  0.30050000  0.34 0.1272885234
H  H34  1  0.45710000  0.26280000  0.26280000  0.34 0.1231048857
H  H45  1  0.46410000  0.72730000  0.80050000  0.34 0.1272885234
H  H46  1  0.45710000  0.76280000  0.76280000  0.34 0.1231048857
H  H57  1  0.78590000  0.52270000  0.80050000  0.34 0.1272885234
H  H58  1  0.79290000  0.48720000  0.76280000  0.34 0.1231048857
H  H69  1  0.78590000  0.02270000  0.30050000  0.34 0.1272885234
H  H70  1  0.79290000  0.98720000  0.26280000  0.34 0.1231048857
H  H81  1  0.28590000  0.52270000  0.30050000  0.34 0.1272885234
H  H82  1  0.29290000  0.48720000  0.26280000  0.34 0.1231048857
H  H93  1  0.28590000  0.02270000  0.80050000  0.34 0.1272885234
H  H94  1  0.29290000  0.98720000  0.76280000  0.34 0.1231048857
H  H105  1  0.21410000  0.77270000  0.05050000  0.34 0.1272885234
H  H106  1  0.20710000  0.73720000  0.01280000  0.34 0.1231048857
H  H117  1  0.21410000  0.27270000  0.55050000  0.34 0.1272885234
H  H118  1  0.20710000  0.23720000  0.51280000  0.34 0.1231048857
H  H129  1  0.71410000  0.77270000  0.55050000  0.34 0.1272885234
H  H130  1  0.70710000  0.73720000  0.51280000  0.34 0.1231048857
H  H141  1  0.71410000  0.27270000  0.05050000  0.34 0.1272885234
H  H142  1  0.70710000  0.23720000  0.01280000  0.34 0.1231048857
H  H153  1  0.03590000  0.47730000  0.05050000  0.34 0.1272885234
H  H154  1  0.04290000  0.51280000  0.01280000  0.34 0.1231048857
H  H165  1  0.03590000  0.97730000  0.55050000  0.34 0.1272885234
H  H166  1  0.04290000  0.01280000  0.51280000  0.34 0.1231048857
H  H177  1  0.53590000  0.47730000  0.55050000  0.34 0.1272885234
H  H178  1  0.54290000  0.51280000  0.51280000  0.34 0.1231048857
H  H189  1  0.53590000  0.97730000  0.05050000  0.34 0.1272885234
H  H190  1  0.54290000  0.01280000  0.01280000  0.34 0.1231048857
H  H201  1  0.78590000  0.22730000  0.94950000  0.34 0.1272885234
H  H202  1  0.79290000  0.26280000  0.98720000  0.34 0.1231048857
H  H213  1  0.78590000  0.72730000  0.44950000  0.34 0.1272885234
H  H214  1  0.79290000  0.76280000  0.48720000  0.34 0.1231048857
H  H225  1  0.28590000  0.22730000  0.44950000  0.34 0.1272885234
H  H226  1  0.29290000  0.26280000  0.48720000  0.34 0.1231048857
H  H237  1  0.28590000  0.72730000  0.94950000  0.34 0.1272885234
H  H238  1  0.29290000  0.76280000  0.98720000  0.34 0.1231048857
H  H249  1  0.96410000  0.52270000  0.94950000  0.34 0.1272885234
H  H250  1  0.95710000  0.48720000  0.98720000  0.34 0.1231048857
H  H261  1  0.96410000  0.02270000  0.44950000  0.34 0.1272885234
H  H262  1  0.95710000  0.98720000  0.48720000  0.34 0.1231048857
H  H273  1  0.46410000  0.52270000  0.44950000  0.34 0.1272885234
H  H274  1  0.45710000  0.48720000  0.48720000  0.34 0.1231048857
H  H285  1  0.46410000  0.02270000  0.94950000  0.34 0.1272885234
H  H286  1  0.45710000  0.98720000  0.98720000  0.34 0.1231048857
H  H297  1  0.03590000  0.77270000  0.19950000  0.34 0.1272885234
H  H298  1  0.04290000  0.73720000  0.23720000  0.34 0.1231048857
H  H309  1  0.03590000  0.27270000  0.69950000  0.34 0.1272885234
H  H310  1  0.04290000  0.23720000  0.73720000  0.34 0.1231048857
H  H321  1  0.53590000  0.77270000  0.69950000  0.34 0.1272885234
H  H322  1  0.54290000  0.73720000  0.73720000  0.34 0.1231048857
H  H333  1  0.53590000  0.27270000  0.19950000  0.34 0.1272885234
H  H334  1  0.54290000  0.23720000  0.23720000  0.34 0.1231048857
H  H345  1  0.21410000  0.47730000  0.19950000  0.34 0.1272885234
H  H346  1  0.20710000  0.51280000  0.23720000  0.34 0.1231048857
H  H357  1  0.21410000  0.97730000  0.69950000  0.34 0.1272885234
H  H358  1  0.20710000  0.01280000  0.73720000  0.34 0.1231048857
H  H369  1  0.71410000  0.47730000  0.69950000  0.34 0.1272885234
H  H370  1  0.70710000  0.51280000  0.73720000  0.34 0.1231048857
H  H381  1  0.71410000  0.97730000  0.19950000  0.34 0.1272885234
H  H382  1  0.70710000  0.01280000  0.23720000  0.34 0.1231048857
H  H3  1  0.93280000  0.22950000  0.75030000  0.41 0.1272885234
H  H4  1  0.93760000  0.18860000  0.78580000  0.41 0.106383036
H  H15  1  0.93280000  0.72950000  0.25030000  0.41 0.1272885234
H  H16  1  0.93760000  0.68860000  0.28580000  0.41 0.106383036
H  H27  1  0.43280000  0.22950000  0.25030000  0.41 0.1272885234
H  H28  1  0.43760000  0.18860000  0.28580000  0.41 0.106383036
H  H39  1  0.43280000  0.72950000  0.75030000  0.41 0.1272885234
H  H40  1  0.43760000  0.68860000  0.78580000  0.41 0.106383036
H  H51  1  0.81720000  0.52050000  0.75030000  0.41 0.1272885234
H  H52  1  0.81240000  0.56140000  0.78580000  0.41 0.106383036
H  H63  1  0.81720000  0.02050000  0.25030000  0.41 0.1272885234
H  H64  1  0.81240000  0.06140000  0.28580000  0.41 0.106383036
H  H75  1  0.31720000  0.52050000  0.25030000  0.41 0.1272885234
H  H76  1  0.31240000  0.56140000  0.28580000  0.41 0.106383036
H  H87  1  0.31720000  0.02050000  0.75030000  0.41 0.1272885234
H  H88  1  0.31240000  0.06140000  0.78580000  0.41 0.106383036
H  H99  1  0.18280000  0.77050000  0.00030000  0.41 0.1272885234
H  H100  1  0.18760000  0.81140000  0.03580000  0.41 0.106383036
H  H111  1  0.18280000  0.27050000  0.50030000  0.41 0.1272885234
H  H112  1  0.18760000  0.31140000  0.53580000  0.41 0.106383036
H  H123  1  0.68280000  0.77050000  0.50030000  0.41 0.1272885234
H  H124  1  0.68760000  0.81140000  0.53580000  0.41 0.106383036
H  H135  1  0.68280000  0.27050000  0.00030000  0.41 0.1272885234
H  H136  1  0.68760000  0.31140000  0.03580000  0.41 0.106383036
H  H147  1  0.06720000  0.47950000  0.00030000  0.41 0.1272885234
H  H148  1  0.06240000  0.43860000  0.03580000  0.41 0.106383036
H  H159  1  0.06720000  0.97950000  0.50030000  0.41 0.1272885234
H  H160  1  0.06240000  0.93860000  0.53580000  0.41 0.106383036
H  H171  1  0.56720000  0.47950000  0.50030000  0.41 0.1272885234
H  H172  1  0.56240000  0.43860000  0.53580000  0.41 0.106383036
H  H183  1  0.56720000  0.97950000  0.00030000  0.41 0.1272885234
H  H184  1  0.56240000  0.93860000  0.03580000  0.41 0.106383036
H  H195  1  0.81720000  0.22950000  0.99970000  0.41 0.1272885234
H  H196  1  0.81240000  0.18860000  0.96420000  0.41 0.106383036
H  H207  1  0.81720000  0.72950000  0.49970000  0.41 0.1272885234
H  H208  1  0.81240000  0.68860000  0.46420000  0.41 0.106383036
H  H219  1  0.31720000  0.22950000  0.49970000  0.41 0.1272885234
H  H220  1  0.31240000  0.18860000  0.46420000  0.41 0.106383036
H  H231  1  0.31720000  0.72950000  0.99970000  0.41 0.1272885234
H  H232  1  0.31240000  0.68860000  0.96420000  0.41 0.106383036
H  H243  1  0.93280000  0.52050000  0.99970000  0.41 0.1272885234
H  H244  1  0.93760000  0.56140000  0.96420000  0.41 0.106383036
H  H255  1  0.93280000  0.02050000  0.49970000  0.41 0.1272885234
H  H256  1  0.93760000  0.06140000  0.46420000  0.41 0.106383036
H  H267  1  0.43280000  0.52050000  0.49970000  0.41 0.1272885234
H  H268  1  0.43760000  0.56140000  0.46420000  0.41 0.106383036
H  H279  1  0.43280000  0.02050000  0.99970000  0.41 0.1272885234
H  H280  1  0.43760000  0.06140000  0.96420000  0.41 0.106383036
H  H291  1  0.06720000  0.77050000  0.24970000  0.41 0.1272885234
H  H292  1  0.06240000  0.81140000  0.21420000  0.41 0.106383036
H  H303  1  0.06720000  0.27050000  0.74970000  0.41 0.1272885234
H  H304  1  0.06240000  0.31140000  0.71420000  0.41 0.106383036
H  H315  1  0.56720000  0.77050000  0.74970000  0.41 0.1272885234
H  H316  1  0.56240000  0.81140000  0.71420000  0.41 0.106383036
H  H327  1  0.56720000  0.27050000  0.24970000  0.41 0.1272885234
H  H328  1  0.56240000  0.31140000  0.21420000  0.41 0.106383036
H  H339  1  0.18280000  0.47950000  0.24970000  0.41 0.1272885234
H  H340  1  0.18760000  0.43860000  0.21420000  0.41 0.106383036
H  H351  1  0.18280000  0.97950000  0.74970000  0.41 0.1272885234
H  H352  1  0.18760000  0.93860000  0.71420000  0.41 0.106383036
H  H363  1  0.68280000  0.47950000  0.74970000  0.41 0.1272885234
H  H364  1  0.68760000  0.43860000  0.71420000  0.41 0.106383036
H  H375  1  0.68280000  0.97950000  0.24970000  0.41 0.1272885234
H  H376  1  0.68760000  0.93860000  0.21420000  0.41 0.106383036
H  H5  1  0.83400000  0.18050000  0.83000000  0.54 0.106383036
H  H6  1  0.60570000  0.27910000  0.81990000  0.54 0.0893849973
H  H17  1  0.83400000  0.68050000  0.33000000  0.54 0.106383036
H  H18  1  0.60570000  0.77910000  0.31990000  0.54 0.0893849973
H  H29  1  0.33400000  0.18050000  0.33000000  0.54 0.106383036
H  H30  1  0.10570000  0.27910000  0.31990000  0.54 0.0893849973
H  H41  1  0.33400000  0.68050000  0.83000000  0.54 0.106383036
H  H42  1  0.10570000  0.77910000  0.81990000  0.54 0.0893849973
H  H53  1  0.91600000  0.56950000  0.83000000  0.54 0.106383036
H  H54  1  0.14430000  0.47090000  0.81990000  0.54 0.0893849973
H  H65  1  0.91600000  0.06950000  0.33000000  0.54 0.106383036
H  H66  1  0.14430000  0.97090000  0.31990000  0.54 0.0893849973
H  H77  1  0.41600000  0.56950000  0.33000000  0.54 0.106383036
H  H78  1  0.64430000  0.47090000  0.31990000  0.54 0.0893849973
H  H89  1  0.41600000  0.06950000  0.83000000  0.54 0.106383036
H  H90  1  0.64430000  0.97090000  0.81990000  0.54 0.0893849973
H  H101  1  0.08400000  0.81950000  0.08000000  0.54 0.106383036
H  H102  1  0.85570000  0.72090000  0.06990000  0.54 0.0893849973
H  H113  1  0.08400000  0.31950000  0.58000000  0.54 0.106383036
H  H114  1  0.85570000  0.22090000  0.56990000  0.54 0.0893849973
H  H125  1  0.58400000  0.81950000  0.58000000  0.54 0.106383036
H  H126  1  0.35570000  0.72090000  0.56990000  0.54 0.0893849973
H  H137  1  0.58400000  0.31950000  0.08000000  0.54 0.106383036
H  H138  1  0.35570000  0.22090000  0.06990000  0.54 0.0893849973
H  H149  1  0.16600000  0.43050000  0.08000000  0.54 0.106383036
H  H150  1  0.39430000  0.52910000  0.06990000  0.54 0.0893849973
H  H161  1  0.16600000  0.93050000  0.58000000  0.54 0.106383036
H  H162  1  0.39430000  0.02910000  0.56990000  0.54 0.0893849973
H  H173  1  0.66600000  0.43050000  0.58000000  0.54 0.106383036
H  H174  1  0.89430000  0.52910000  0.56990000  0.54 0.0893849973
H  H185  1  0.66600000  0.93050000  0.08000000  0.54 0.106383036
H  H186  1  0.89430000  0.02910000  0.06990000  0.54 0.0893849973
H  H197  1  0.91600000  0.18050000  0.92000000  0.54 0.106383036
H  H198  1  0.14430000  0.27910000  0.93010000  0.54 0.0893849973
H  H209  1  0.91600000  0.68050000  0.42000000  0.54 0.106383036
H  H210  1  0.14430000  0.77910000  0.43010000  0.54 0.0893849973
H  H221  1  0.41600000  0.18050000  0.42000000  0.54 0.106383036
H  H222  1  0.64430000  0.27910000  0.43010000  0.54 0.0893849973
H  H233  1  0.41600000  0.68050000  0.92000000  0.54 0.106383036
H  H234  1  0.64430000  0.77910000  0.93010000  0.54 0.0893849973
H  H245  1  0.83400000  0.56950000  0.92000000  0.54 0.106383036
H  H246  1  0.60570000  0.47090000  0.93010000  0.54 0.0893849973
H  H257  1  0.83400000  0.06950000  0.42000000  0.54 0.106383036
H  H258  1  0.60570000  0.97090000  0.43010000  0.54 0.0893849973
H  H269  1  0.33400000  0.56950000  0.42000000  0.54 0.106383036
H  H270  1  0.10570000  0.47090000  0.43010000  0.54 0.0893849973
H  H281  1  0.33400000  0.06950000  0.92000000  0.54 0.106383036
H  H282  1  0.10570000  0.97090000  0.93010000  0.54 0.0893849973
H  H293  1  0.16600000  0.81950000  0.17000000  0.54 0.106383036
H  H294  1  0.39430000  0.72090000  0.18010000  0.54 0.0893849973
H  H305  1  0.16600000  0.31950000  0.67000000  0.54 0.106383036
H  H306  1  0.39430000  0.22090000  0.68010000  0.54 0.0893849973
H  H317  1  0.66600000  0.81950000  0.67000000  0.54 0.106383036
H  H318  1  0.89430000  0.72090000  0.68010000  0.54 0.0893849973
H  H329  1  0.66600000  0.31950000  0.17000000  0.54 0.106383036
H  H330  1  0.89430000  0.22090000  0.18010000  0.54 0.0893849973
H  H341  1  0.08400000  0.43050000  0.17000000  0.54 0.106383036
H  H342  1  0.85570000  0.52910000  0.18010000  0.54 0.0893849973
H  H353  1  0.08400000  0.93050000  0.67000000  0.54 0.106383036
H  H354  1  0.85570000  0.02910000  0.68010000  0.54 0.0893849973
H  H365  1  0.58400000  0.43050000  0.67000000  0.54 0.106383036
H  H366  1  0.35570000  0.52910000  0.68010000  0.54 0.0893849973
H  H377  1  0.58400000  0.93050000  0.17000000  0.54 0.106383036
H  H378  1  0.35570000  0.02910000  0.18010000  0.54 0.0893849973
H  H11  1  0.85150000  0.20710000  0.83950000  0.46 0.0992325599
H  H12  1  0.59670000  0.24760000  0.80920000  0.46 0.0992325599
H  H23  1  0.85150000  0.70710000  0.33950000  0.46 0.0992325599
H  H24  1  0.59670000  0.74760000  0.30920000  0.46 0.0992325599
H  H35  1  0.35150000  0.20710000  0.33950000  0.46 0.0992325599
H  H36  1  0.09670000  0.24760000  0.30920000  0.46 0.0992325599
H  H47  1  0.35150000  0.70710000  0.83950000  0.46 0.0992325599
H  H48  1  0.09670000  0.74760000  0.80920000  0.46 0.0992325599
H  H59  1  0.89850000  0.54290000  0.83950000  0.46 0.0992325599
H  H60  1  0.15330000  0.50240000  0.80920000  0.46 0.0992325599
H  H71  1  0.89850000  0.04290000  0.33950000  0.46 0.0992325599
H  H72  1  0.15330000  0.00240000  0.30920000  0.46 0.0992325599
H  H83  1  0.39850000  0.54290000  0.33950000  0.46 0.0992325599
H  H84  1  0.65330000  0.50240000  0.30920000  0.46 0.0992325599
H  H95  1  0.39850000  0.04290000  0.83950000  0.46 0.0992325599
H  H96  1  0.65330000  0.00240000  0.80920000  0.46 0.0992325599
H  H107  1  0.10150000  0.79290000  0.08950000  0.46 0.0992325599
H  H108  1  0.84670000  0.75240000  0.05920000  0.46 0.0992325599
H  H119  1  0.10150000  0.29290000  0.58950000  0.46 0.0992325599
H  H120  1  0.84670000  0.25240000  0.55920000  0.46 0.0992325599
H  H131  1  0.60150000  0.79290000  0.58950000  0.46 0.0992325599
H  H132  1  0.34670000  0.75240000  0.55920000  0.46 0.0992325599
H  H143  1  0.60150000  0.29290000  0.08950000  0.46 0.0992325599
H  H144  1  0.34670000  0.25240000  0.05920000  0.46 0.0992325599
H  H155  1  0.14850000  0.45710000  0.08950000  0.46 0.0992325599
H  H156  1  0.40330000  0.49760000  0.05920000  0.46 0.0992325599
H  H167  1  0.14850000  0.95710000  0.58950000  0.46 0.0992325599
H  H168  1  0.40330000  0.99760000  0.55920000  0.46 0.0992325599
H  H179  1  0.64850000  0.45710000  0.58950000  0.46 0.0992325599
H  H180  1  0.90330000  0.49760000  0.55920000  0.46 0.0992325599
H  H191  1  0.64850000  0.95710000  0.08950000  0.46 0.0992325599
H  H192  1  0.90330000  0.99760000  0.05920000  0.46 0.0992325599
H  H203  1  0.89850000  0.20710000  0.91050000  0.46 0.0992325599
H  H204  1  0.15330000  0.24760000  0.94080000  0.46 0.0992325599
H  H215  1  0.89850000  0.70710000  0.41050000  0.46 0.0992325599
H  H216  1  0.15330000  0.74760000  0.44080000  0.46 0.0992325599
H  H227  1  0.39850000  0.20710000  0.41050000  0.46 0.0992325599
H  H228  1  0.65330000  0.24760000  0.44080000  0.46 0.0992325599
H  H239  1  0.39850000  0.70710000  0.91050000  0.46 0.0992325599
H  H240  1  0.65330000  0.74760000  0.94080000  0.46 0.0992325599
H  H251  1  0.85150000  0.54290000  0.91050000  0.46 0.0992325599
H  H252  1  0.59670000  0.50240000  0.94080000  0.46 0.0992325599
H  H263  1  0.85150000  0.04290000  0.41050000  0.46 0.0992325599
H  H264  1  0.59670000  0.00240000  0.44080000  0.46 0.0992325599
H  H275  1  0.35150000  0.54290000  0.41050000  0.46 0.0992325599
H  H276  1  0.09670000  0.50240000  0.44080000  0.46 0.0992325599
H  H287  1  0.35150000  0.04290000  0.91050000  0.46 0.0992325599
H  H288  1  0.09670000  0.00240000  0.94080000  0.46 0.0992325599
H  H299  1  0.14850000  0.79290000  0.16050000  0.46 0.0992325599
H  H300  1  0.40330000  0.75240000  0.19080000  0.46 0.0992325599
H  H311  1  0.14850000  0.29290000  0.66050000  0.46 0.0992325599
H  H312  1  0.40330000  0.25240000  0.69080000  0.46 0.0992325599
H  H323  1  0.64850000  0.79290000  0.66050000  0.46 0.0992325599
H  H324  1  0.90330000  0.75240000  0.69080000  0.46 0.0992325599
H  H335  1  0.64850000  0.29290000  0.16050000  0.46 0.0992325599
H  H336  1  0.90330000  0.25240000  0.19080000  0.46 0.0992325599
H  H347  1  0.10150000  0.45710000  0.16050000  0.46 0.0992325599
H  H348  1  0.84670000  0.49760000  0.19080000  0.46 0.0992325599
H  H359  1  0.10150000  0.95710000  0.66050000  0.46 0.0992325599
H  H360  1  0.84670000  0.99760000  0.69080000  0.46 0.0992325599
H  H371  1  0.60150000  0.45710000  0.66050000  0.46 0.0992325599
H  H372  1  0.34670000  0.49760000  0.69080000  0.46 0.0992325599
H  H383  1  0.60150000  0.95710000  0.16050000  0.46 0.0992325599
H  H384  1  0.34670000  0.99760000  0.19080000  0.46 0.0992325599
C  C1  1  0.80990000  0.30520000  0.72600000  1.0 0.4141888423
C  C2  1  0.81500000  0.44640000  0.61680000  1.0 0.4141888423
C  C15  1  0.80990000  0.80520000  0.22600000  1.0 0.4141888423
C  C16  1  0.81500000  0.94640000  0.11680000  1.0 0.4141888423
C  C29  1  0.30990000  0.30520000  0.22600000  1.0 0.4141888423
C  C30  1  0.31500000  0.44640000  0.11680000  1.0 0.4141888423
C  C43  1  0.30990000  0.80520000  0.72600000  1.0 0.4141888423
C  C44  1  0.31500000  0.94640000  0.61680000  1.0 0.4141888423
C  C57  1  0.94010000  0.44480000  0.72600000  1.0 0.4141888423
C  C58  1  0.93500000  0.30360000  0.61680000  1.0 0.4141888423
C  C71  1  0.94010000  0.94480000  0.22600000  1.0 0.4141888423
C  C72  1  0.93500000  0.80360000  0.11680000  1.0 0.4141888423
C  C85  1  0.44010000  0.44480000  0.22600000  1.0 0.4141888423
C  C86  1  0.43500000  0.30360000  0.11680000  1.0 0.4141888423
C  C99  1  0.44010000  0.94480000  0.72600000  1.0 0.4141888423
C  C100  1  0.43500000  0.80360000  0.61680000  1.0 0.4141888423
C  C113  1  0.05990000  0.69480000  0.97600000  1.0 0.4141888423
C  C114  1  0.06500000  0.55360000  0.86680000  1.0 0.4141888423
C  C127  1  0.05990000  0.19480000  0.47600000  1.0 0.4141888423
C  C128  1  0.06500000  0.05360000  0.36680000  1.0 0.4141888423
C  C141  1  0.55990000  0.69480000  0.47600000  1.0 0.4141888423
C  C142  1  0.56500000  0.55360000  0.36680000  1.0 0.4141888423
C  C155  1  0.55990000  0.19480000  0.97600000  1.0 0.4141888423
C  C156  1  0.56500000  0.05360000  0.86680000  1.0 0.4141888423
C  C169  1  0.19010000  0.55520000  0.97600000  1.0 0.4141888423
C  C170  1  0.18500000  0.69640000  0.86680000  1.0 0.4141888423
C  C183  1  0.19010000  0.05520000  0.47600000  1.0 0.4141888423
C  C184  1  0.18500000  0.19640000  0.36680000  1.0 0.4141888423
C  C197  1  0.69010000  0.55520000  0.47600000  1.0 0.4141888423
C  C198  1  0.68500000  0.69640000  0.36680000  1.0 0.4141888423
C  C211  1  0.69010000  0.05520000  0.97600000  1.0 0.4141888423
C  C212  1  0.68500000  0.19640000  0.86680000  1.0 0.4141888423
C  C225  1  0.94010000  0.30520000  0.02400000  1.0 0.4141888423
C  C226  1  0.93500000  0.44640000  0.13320000  1.0 0.4141888423
C  C239  1  0.94010000  0.80520000  0.52400000  1.0 0.4141888423
C  C240  1  0.93500000  0.94640000  0.63320000  1.0 0.4141888423
C  C253  1  0.44010000  0.30520000  0.52400000  1.0 0.4141888423
C  C254  1  0.43500000  0.44640000  0.63320000  1.0 0.4141888423
C  C267  1  0.44010000  0.80520000  0.02400000  1.0 0.4141888423
C  C268  1  0.43500000  0.94640000  0.13320000  1.0 0.4141888423
C  C281  1  0.80990000  0.44480000  0.02400000  1.0 0.4141888423
C  C282  1  0.81500000  0.30360000  0.13320000  1.0 0.4141888423
C  C295  1  0.80990000  0.94480000  0.52400000  1.0 0.4141888423
C  C296  1  0.81500000  0.80360000  0.63320000  1.0 0.4141888423
C  C309  1  0.30990000  0.44480000  0.52400000  1.0 0.4141888423
C  C310  1  0.31500000  0.30360000  0.63320000  1.0 0.4141888423
C  C323  1  0.30990000  0.94480000  0.02400000  1.0 0.4141888423
C  C324  1  0.31500000  0.80360000  0.13320000  1.0 0.4141888423
C  C337  1  0.19010000  0.69480000  0.27400000  1.0 0.4141888423
C  C338  1  0.18500000  0.55360000  0.38320000  1.0 0.4141888423
C  C351  1  0.19010000  0.19480000  0.77400000  1.0 0.4141888423
C  C352  1  0.18500000  0.05360000  0.88320000  1.0 0.4141888423
C  C365  1  0.69010000  0.69480000  0.77400000  1.0 0.4141888423
C  C366  1  0.68500000  0.55360000  0.88320000  1.0 0.4141888423
C  C379  1  0.69010000  0.19480000  0.27400000  1.0 0.4141888423
C  C380  1  0.68500000  0.05360000  0.38320000  1.0 0.4141888423
C  C393  1  0.05990000  0.55520000  0.27400000  1.0 0.4141888423
C  C394  1  0.06500000  0.69640000  0.38320000  1.0 0.4141888423
C  C407  1  0.05990000  0.05520000  0.77400000  1.0 0.4141888423
C  C408  1  0.06500000  0.19640000  0.88320000  1.0 0.4141888423
C  C421  1  0.55990000  0.55520000  0.77400000  1.0 0.4141888423
C  C422  1  0.56500000  0.69640000  0.88320000  1.0 0.4141888423
C  C435  1  0.55990000  0.05520000  0.27400000  1.0 0.4141888423
C  C436  1  0.56500000  0.19640000  0.38320000  1.0 0.4141888423
C  C9  1  0.78100000  0.27800000  0.76260000  0.46 -0.2186405623
C  C10  1  0.84120000  0.25220000  0.78840000  0.46 0.1504816102
C  C11  1  0.81030000  0.22470000  0.82190000  0.46 -0.1101485136
C  C12  1  0.71920000  0.22300000  0.82970000  0.46 -0.0025074874
C  C13  1  0.65900000  0.24880000  0.80390000  0.46 -0.1101485136
C  C14  1  0.68990000  0.27630000  0.77040000  0.46 0.1436072203
C  C23  1  0.78100000  0.77800000  0.26260000  0.46 -0.2186405623
C  C24  1  0.84120000  0.75220000  0.28840000  0.46 0.1504816102
C  C25  1  0.81030000  0.72470000  0.32190000  0.46 -0.1101485136
C  C26  1  0.71920000  0.72300000  0.32970000  0.46 -0.0025074874
C  C27  1  0.65900000  0.74880000  0.30390000  0.46 -0.1101485136
C  C28  1  0.68990000  0.77630000  0.27040000  0.46 0.1436072203
C  C37  1  0.28100000  0.27800000  0.26260000  0.46 -0.2186405623
C  C38  1  0.34120000  0.25220000  0.28840000  0.46 0.1504816102
C  C39  1  0.31030000  0.22470000  0.32190000  0.46 -0.1101485136
C  C40  1  0.21920000  0.22300000  0.32970000  0.46 -0.0025074874
C  C41  1  0.15900000  0.24880000  0.30390000  0.46 -0.1101485136
C  C42  1  0.18990000  0.27630000  0.27040000  0.46 0.1436072203
C  C51  1  0.28100000  0.77800000  0.76260000  0.46 -0.2186405623
C  C52  1  0.34120000  0.75220000  0.78840000  0.46 0.1504816102
C  C53  1  0.31030000  0.72470000  0.82190000  0.46 -0.1101485136
C  C54  1  0.21920000  0.72300000  0.82970000  0.46 -0.0025074874
C  C55  1  0.15900000  0.74880000  0.80390000  0.46 -0.1101485136
C  C56  1  0.18990000  0.77630000  0.77040000  0.46 0.1436072203
C  C65  1  0.96900000  0.47200000  0.76260000  0.46 -0.2186405623
C  C66  1  0.90880000  0.49780000  0.78840000  0.46 0.1504816102
C  C67  1  0.93970000  0.52530000  0.82190000  0.46 -0.1101485136
C  C68  1  0.03080000  0.52700000  0.82970000  0.46 -0.0025074874
C  C69  1  0.09100000  0.50120000  0.80390000  0.46 -0.1101485136
C  C70  1  0.06010000  0.47370000  0.77040000  0.46 0.1436072203
C  C79  1  0.96900000  0.97200000  0.26260000  0.46 -0.2186405623
C  C80  1  0.90880000  0.99780000  0.28840000  0.46 0.1504816102
C  C81  1  0.93970000  0.02530000  0.32190000  0.46 -0.1101485136
C  C82  1  0.03080000  0.02700000  0.32970000  0.46 -0.0025074874
C  C83  1  0.09100000  0.00120000  0.30390000  0.46 -0.1101485136
C  C84  1  0.06010000  0.97370000  0.27040000  0.46 0.1436072203
C  C93  1  0.46900000  0.47200000  0.26260000  0.46 -0.2186405623
C  C94  1  0.40880000  0.49780000  0.28840000  0.46 0.1504816102
C  C95  1  0.43970000  0.52530000  0.32190000  0.46 -0.1101485136
C  C96  1  0.53080000  0.52700000  0.32970000  0.46 -0.0025074874
C  C97  1  0.59100000  0.50120000  0.30390000  0.46 -0.1101485136
C  C98  1  0.56010000  0.47370000  0.27040000  0.46 0.1436072203
C  C107  1  0.46900000  0.97200000  0.76260000  0.46 -0.2186405623
C  C108  1  0.40880000  0.99780000  0.78840000  0.46 0.1504816102
C  C109  1  0.43970000  0.02530000  0.82190000  0.46 -0.1101485136
C  C110  1  0.53080000  0.02700000  0.82970000  0.46 -0.0025074874
C  C111  1  0.59100000  0.00120000  0.80390000  0.46 -0.1101485136
C  C112  1  0.56010000  0.97370000  0.77040000  0.46 0.1436072203
C  C121  1  0.03100000  0.72200000  0.01260000  0.46 -0.2186405623
C  C122  1  0.09120000  0.74780000  0.03840000  0.46 0.1504816102
C  C123  1  0.06030000  0.77530000  0.07190000  0.46 -0.1101485136
C  C124  1  0.96920000  0.77700000  0.07970000  0.46 -0.0025074874
C  C125  1  0.90900000  0.75120000  0.05390000  0.46 -0.1101485136
C  C126  1  0.93990000  0.72370000  0.02040000  0.46 0.1436072203
C  C135  1  0.03100000  0.22200000  0.51260000  0.46 -0.2186405623
C  C136  1  0.09120000  0.24780000  0.53840000  0.46 0.1504816102
C  C137  1  0.06030000  0.27530000  0.57190000  0.46 -0.1101485136
C  C138  1  0.96920000  0.27700000  0.57970000  0.46 -0.0025074874
C  C139  1  0.90900000  0.25120000  0.55390000  0.46 -0.1101485136
C  C140  1  0.93990000  0.22370000  0.52040000  0.46 0.1436072203
C  C149  1  0.53100000  0.72200000  0.51260000  0.46 -0.2186405623
C  C150  1  0.59120000  0.74780000  0.53840000  0.46 0.1504816102
C  C151  1  0.56030000  0.77530000  0.57190000  0.46 -0.1101485136
C  C152  1  0.46920000  0.77700000  0.57970000  0.46 -0.0025074874
C  C153  1  0.40900000  0.75120000  0.55390000  0.46 -0.1101485136
C  C154  1  0.43990000  0.72370000  0.52040000  0.46 0.1436072203
C  C163  1  0.53100000  0.22200000  0.01260000  0.46 -0.2186405623
C  C164  1  0.59120000  0.24780000  0.03840000  0.46 0.1504816102
C  C165  1  0.56030000  0.27530000  0.07190000  0.46 -0.1101485136
C  C166  1  0.46920000  0.27700000  0.07970000  0.46 -0.0025074874
C  C167  1  0.40900000  0.25120000  0.05390000  0.46 -0.1101485136
C  C168  1  0.43990000  0.22370000  0.02040000  0.46 0.1436072203
C  C177  1  0.21900000  0.52800000  0.01260000  0.46 -0.2186405623
C  C178  1  0.15880000  0.50220000  0.03840000  0.46 0.1504816102
C  C179  1  0.18970000  0.47470000  0.07190000  0.46 -0.1101485136
C  C180  1  0.28080000  0.47300000  0.07970000  0.46 -0.0025074874
C  C181  1  0.34100000  0.49880000  0.05390000  0.46 -0.1101485136
C  C182  1  0.31010000  0.52630000  0.02040000  0.46 0.1436072203
C  C191  1  0.21900000  0.02800000  0.51260000  0.46 -0.2186405623
C  C192  1  0.15880000  0.00220000  0.53840000  0.46 0.1504816102
C  C193  1  0.18970000  0.97470000  0.57190000  0.46 -0.1101485136
C  C194  1  0.28080000  0.97300000  0.57970000  0.46 -0.0025074874
C  C195  1  0.34100000  0.99880000  0.55390000  0.46 -0.1101485136
C  C196  1  0.31010000  0.02630000  0.52040000  0.46 0.1436072203
C  C205  1  0.71900000  0.52800000  0.51260000  0.46 -0.2186405623
C  C206  1  0.65880000  0.50220000  0.53840000  0.46 0.1504816102
C  C207  1  0.68970000  0.47470000  0.57190000  0.46 -0.1101485136
C  C208  1  0.78080000  0.47300000  0.57970000  0.46 -0.0025074874
C  C209  1  0.84100000  0.49880000  0.55390000  0.46 -0.1101485136
C  C210  1  0.81010000  0.52630000  0.52040000  0.46 0.1436072203
C  C219  1  0.71900000  0.02800000  0.01260000  0.46 -0.2186405623
C  C220  1  0.65880000  0.00220000  0.03840000  0.46 0.1504816102
C  C221  1  0.68970000  0.97470000  0.07190000  0.46 -0.1101485136
C  C222  1  0.78080000  0.97300000  0.07970000  0.46 -0.0025074874
C  C223  1  0.84100000  0.99880000  0.05390000  0.46 -0.1101485136
C  C224  1  0.81010000  0.02630000  0.02040000  0.46 0.1436072203
C  C233  1  0.96900000  0.27800000  0.98740000  0.46 -0.2186405623
C  C234  1  0.90880000  0.25220000  0.96160000  0.46 0.1504816102
C  C235  1  0.93970000  0.22470000  0.92810000  0.46 -0.1101485136
C  C236  1  0.03080000  0.22300000  0.92030000  0.46 -0.0025074874
C  C237  1  0.09100000  0.24880000  0.94610000  0.46 -0.1101485136
C  C238  1  0.06010000  0.27630000  0.97960000  0.46 0.1436072203
C  C247  1  0.96900000  0.77800000  0.48740000  0.46 -0.2186405623
C  C248  1  0.90880000  0.75220000  0.46160000  0.46 0.1504816102
C  C249  1  0.93970000  0.72470000  0.42810000  0.46 -0.1101485136
C  C250  1  0.03080000  0.72300000  0.42030000  0.46 -0.0025074874
C  C251  1  0.09100000  0.74880000  0.44610000  0.46 -0.1101485136
C  C252  1  0.06010000  0.77630000  0.47960000  0.46 0.1436072203
C  C261  1  0.46900000  0.27800000  0.48740000  0.46 -0.2186405623
C  C262  1  0.40880000  0.25220000  0.46160000  0.46 0.1504816102
C  C263  1  0.43970000  0.22470000  0.42810000  0.46 -0.1101485136
C  C264  1  0.53080000  0.22300000  0.42030000  0.46 -0.0025074874
C  C265  1  0.59100000  0.24880000  0.44610000  0.46 -0.1101485136
C  C266  1  0.56010000  0.27630000  0.47960000  0.46 0.1436072203
C  C275  1  0.46900000  0.77800000  0.98740000  0.46 -0.2186405623
C  C276  1  0.40880000  0.75220000  0.96160000  0.46 0.1504816102
C  C277  1  0.43970000  0.72470000  0.92810000  0.46 -0.1101485136
C  C278  1  0.53080000  0.72300000  0.92030000  0.46 -0.0025074874
C  C279  1  0.59100000  0.74880000  0.94610000  0.46 -0.1101485136
C  C280  1  0.56010000  0.77630000  0.97960000  0.46 0.1436072203
C  C289  1  0.78100000  0.47200000  0.98740000  0.46 -0.2186405623
C  C290  1  0.84120000  0.49780000  0.96160000  0.46 0.1504816102
C  C291  1  0.81030000  0.52530000  0.92810000  0.46 -0.1101485136
C  C292  1  0.71920000  0.52700000  0.92030000  0.46 -0.0025074874
C  C293  1  0.65900000  0.50120000  0.94610000  0.46 -0.1101485136
C  C294  1  0.68990000  0.47370000  0.97960000  0.46 0.1436072203
C  C303  1  0.78100000  0.97200000  0.48740000  0.46 -0.2186405623
C  C304  1  0.84120000  0.99780000  0.46160000  0.46 0.1504816102
C  C305  1  0.81030000  0.02530000  0.42810000  0.46 -0.1101485136
C  C306  1  0.71920000  0.02700000  0.42030000  0.46 -0.0025074874
C  C307  1  0.65900000  0.00120000  0.44610000  0.46 -0.1101485136
C  C308  1  0.68990000  0.97370000  0.47960000  0.46 0.1436072203
C  C317  1  0.28100000  0.47200000  0.48740000  0.46 -0.2186405623
C  C318  1  0.34120000  0.49780000  0.46160000  0.46 0.1504816102
C  C319  1  0.31030000  0.52530000  0.42810000  0.46 -0.1101485136
C  C320  1  0.21920000  0.52700000  0.42030000  0.46 -0.0025074874
C  C321  1  0.15900000  0.50120000  0.44610000  0.46 -0.1101485136
C  C322  1  0.18990000  0.47370000  0.47960000  0.46 0.1436072203
C  C331  1  0.28100000  0.97200000  0.98740000  0.46 -0.2186405623
C  C332  1  0.34120000  0.99780000  0.96160000  0.46 0.1504816102
C  C333  1  0.31030000  0.02530000  0.92810000  0.46 -0.1101485136
C  C334  1  0.21920000  0.02700000  0.92030000  0.46 -0.0025074874
C  C335  1  0.15900000  0.00120000  0.94610000  0.46 -0.1101485136
C  C336  1  0.18990000  0.97370000  0.97960000  0.46 0.1436072203
C  C345  1  0.21900000  0.72200000  0.23740000  0.46 -0.2186405623
C  C346  1  0.15880000  0.74780000  0.21160000  0.46 0.1504816102
C  C347  1  0.18970000  0.77530000  0.17810000  0.46 -0.1101485136
C  C348  1  0.28080000  0.77700000  0.17030000  0.46 -0.0025074874
C  C349  1  0.34100000  0.75120000  0.19610000  0.46 -0.1101485136
C  C350  1  0.31010000  0.72370000  0.22960000  0.46 0.1436072203
C  C359  1  0.21900000  0.22200000  0.73740000  0.46 -0.2186405623
C  C360  1  0.15880000  0.24780000  0.71160000  0.46 0.1504816102
C  C361  1  0.18970000  0.27530000  0.67810000  0.46 -0.1101485136
C  C362  1  0.28080000  0.27700000  0.67030000  0.46 -0.0025074874
C  C363  1  0.34100000  0.25120000  0.69610000  0.46 -0.1101485136
C  C364  1  0.31010000  0.22370000  0.72960000  0.46 0.1436072203
C  C373  1  0.71900000  0.72200000  0.73740000  0.46 -0.2186405623
C  C374  1  0.65880000  0.74780000  0.71160000  0.46 0.1504816102
C  C375  1  0.68970000  0.77530000  0.67810000  0.46 -0.1101485136
C  C376  1  0.78080000  0.77700000  0.67030000  0.46 -0.0025074874
C  C377  1  0.84100000  0.75120000  0.69610000  0.46 -0.1101485136
C  C378  1  0.81010000  0.72370000  0.72960000  0.46 0.1436072203
C  C387  1  0.71900000  0.22200000  0.23740000  0.46 -0.2186405623
C  C388  1  0.65880000  0.24780000  0.21160000  0.46 0.1504816102
C  C389  1  0.68970000  0.27530000  0.17810000  0.46 -0.1101485136
C  C390  1  0.78080000  0.27700000  0.17030000  0.46 -0.0025074874
C  C391  1  0.84100000  0.25120000  0.19610000  0.46 -0.1101485136
C  C392  1  0.81010000  0.22370000  0.22960000  0.46 0.1436072203
C  C401  1  0.03100000  0.52800000  0.23740000  0.46 -0.2186405623
C  C402  1  0.09120000  0.50220000  0.21160000  0.46 0.1504816102
C  C403  1  0.06030000  0.47470000  0.17810000  0.46 -0.1101485136
C  C404  1  0.96920000  0.47300000  0.17030000  0.46 -0.0025074874
C  C405  1  0.90900000  0.49880000  0.19610000  0.46 -0.1101485136
C  C406  1  0.93990000  0.52630000  0.22960000  0.46 0.1436072203
C  C415  1  0.03100000  0.02800000  0.73740000  0.46 -0.2186405623
C  C416  1  0.09120000  0.00220000  0.71160000  0.46 0.1504816102
C  C417  1  0.06030000  0.97470000  0.67810000  0.46 -0.1101485136
C  C418  1  0.96920000  0.97300000  0.67030000  0.46 -0.0025074874
C  C419  1  0.90900000  0.99880000  0.69610000  0.46 -0.1101485136
C  C420  1  0.93990000  0.02630000  0.72960000  0.46 0.1436072203
C  C429  1  0.53100000  0.52800000  0.73740000  0.46 -0.2186405623
C  C430  1  0.59120000  0.50220000  0.71160000  0.46 0.1504816102
C  C431  1  0.56030000  0.47470000  0.67810000  0.46 -0.1101485136
C  C432  1  0.46920000  0.47300000  0.67030000  0.46 -0.0025074874
C  C433  1  0.40900000  0.49880000  0.69610000  0.46 -0.1101485136
C  C434  1  0.43990000  0.52630000  0.72960000  0.46 0.1436072203
C  C443  1  0.53100000  0.02800000  0.23740000  0.46 -0.2186405623
C  C444  1  0.59120000  0.00220000  0.21160000  0.46 0.1504816102
C  C445  1  0.56030000  0.97470000  0.17810000  0.46 -0.1101485136
C  C446  1  0.46920000  0.97300000  0.17030000  0.46 -0.0025074874
C  C447  1  0.40900000  0.99880000  0.19610000  0.46 -0.1101485136
C  C448  1  0.43990000  0.02630000  0.22960000  0.46 0.1436072203
C  C3  1  0.77440000  0.27250000  0.76050000  0.54 -0.18995841
C  C4  1  0.82740000  0.23160000  0.78100000  0.54 0.1436072203
C  C5  1  0.79780000  0.20840000  0.81600000  0.54 -0.1101485136
C  C6  1  0.71520000  0.22610000  0.83050000  0.54 -0.0025074874
C  C7  1  0.66220000  0.26700000  0.81000000  0.54 -0.1101485136
C  C8  1  0.69180000  0.29020000  0.77500000  0.54 0.1504816102
C  C17  1  0.77440000  0.77250000  0.26050000  0.54 -0.18995841
C  C18  1  0.82740000  0.73160000  0.28100000  0.54 0.1436072203
C  C19  1  0.79780000  0.70840000  0.31600000  0.54 -0.1101485136
C  C20  1  0.71520000  0.72610000  0.33050000  0.54 -0.0025074874
C  C21  1  0.66220000  0.76700000  0.31000000  0.54 -0.1101485136
C  C22  1  0.69180000  0.79020000  0.27500000  0.54 0.1436072203
C  C31  1  0.27440000  0.27250000  0.26050000  0.54 -0.18995841
C  C32  1  0.32740000  0.23160000  0.28100000  0.54 0.1436072203
C  C33  1  0.29780000  0.20840000  0.31600000  0.54 -0.1101485136
C  C34  1  0.21520000  0.22610000  0.33050000  0.54 -0.0025074874
C  C35  1  0.16220000  0.26700000  0.31000000  0.54 -0.1101485136
C  C36  1  0.19180000  0.29020000  0.27500000  0.54 0.1504816102
C  C45  1  0.27440000  0.77250000  0.76050000  0.54 -0.18995841
C  C46  1  0.32740000  0.73160000  0.78100000  0.54 0.1436072203
C  C47  1  0.29780000  0.70840000  0.81600000  0.54 -0.1101485136
C  C48  1  0.21520000  0.72610000  0.83050000  0.54 -0.0025074874
C  C49  1  0.16220000  0.76700000  0.81000000  0.54 -0.1101485136
C  C50  1  0.19180000  0.79020000  0.77500000  0.54 0.1504816102
C  C59  1  0.97560000  0.47750000  0.76050000  0.54 -0.18995841
C  C60  1  0.92260000  0.51840000  0.78100000  0.54 0.1436072203
C  C61  1  0.95220000  0.54160000  0.81600000  0.54 -0.1101485136
C  C62  1  0.03480000  0.52390000  0.83050000  0.54 -0.0025074874
C  C63  1  0.08780000  0.48300000  0.81000000  0.54 -0.1101485136
C  C64  1  0.05820000  0.45980000  0.77500000  0.54 0.1504816102
C  C73  1  0.97560000  0.97750000  0.26050000  0.54 -0.18995841
C  C74  1  0.92260000  0.01840000  0.28100000  0.54 0.1436072203
C  C75  1  0.95220000  0.04160000  0.31600000  0.54 -0.1101485136
C  C76  1  0.03480000  0.02390000  0.33050000  0.54 -0.0025074874
C  C77  1  0.08780000  0.98300000  0.31000000  0.54 -0.1101485136
C  C78  1  0.05820000  0.95980000  0.27500000  0.54 0.1504816102
C  C87  1  0.47560000  0.47750000  0.26050000  0.54 -0.18995841
C  C88  1  0.42260000  0.51840000  0.28100000  0.54 0.1436072203
C  C89  1  0.45220000  0.54160000  0.31600000  0.54 -0.1101485136
C  C90  1  0.53480000  0.52390000  0.33050000  0.54 -0.0025074874
C  C91  1  0.58780000  0.48300000  0.31000000  0.54 -0.1101485136
C  C92  1  0.55820000  0.45980000  0.27500000  0.54 0.1504816102
C  C101  1  0.47560000  0.97750000  0.76050000  0.54 -0.18995841
C  C102  1  0.42260000  0.01840000  0.78100000  0.54 0.1436072203
C  C103  1  0.45220000  0.04160000  0.81600000  0.54 -0.1101485136
C  C104  1  0.53480000  0.02390000  0.83050000  0.54 -0.0025074874
C  C105  1  0.58780000  0.98300000  0.81000000  0.54 -0.1101485136
C  C106  1  0.55820000  0.95980000  0.77500000  0.54 0.1436072203
C  C115  1  0.02440000  0.72750000  0.01050000  0.54 -0.18995841
C  C116  1  0.07740000  0.76840000  0.03100000  0.54 0.1436072203
C  C117  1  0.04780000  0.79160000  0.06600000  0.54 -0.1101485136
C  C118  1  0.96520000  0.77390000  0.08050000  0.54 -0.0025074874
C  C119  1  0.91220000  0.73300000  0.06000000  0.54 -0.1101485136
C  C120  1  0.94180000  0.70980000  0.02500000  0.54 0.1436072203
C  C129  1  0.02440000  0.22750000  0.51050000  0.54 -0.18995841
C  C130  1  0.07740000  0.26840000  0.53100000  0.54 0.1436072203
C  C131  1  0.04780000  0.29160000  0.56600000  0.54 -0.1101485136
C  C132  1  0.96520000  0.27390000  0.58050000  0.54 -0.0025074874
C  C133  1  0.91220000  0.23300000  0.56000000  0.54 -0.1101485136
C  C134  1  0.94180000  0.20980000  0.52500000  0.54 0.1504816102
C  C143  1  0.52440000  0.72750000  0.51050000  0.54 -0.18995841
C  C144  1  0.57740000  0.76840000  0.53100000  0.54 0.1436072203
C  C145  1  0.54780000  0.79160000  0.56600000  0.54 -0.1101485136
C  C146  1  0.46520000  0.77390000  0.58050000  0.54 -0.0025074874
C  C147  1  0.41220000  0.73300000  0.56000000  0.54 -0.1101485136
C  C148  1  0.44180000  0.70980000  0.52500000  0.54 0.1436072203
C  C157  1  0.52440000  0.22750000  0.01050000  0.54 -0.18995841
C  C158  1  0.57740000  0.26840000  0.03100000  0.54 0.1436072203
C  C159  1  0.54780000  0.29160000  0.06600000  0.54 -0.1101485136
C  C160  1  0.46520000  0.27390000  0.08050000  0.54 -0.0025074874
C  C161  1  0.41220000  0.23300000  0.06000000  0.54 -0.1101485136
C  C162  1  0.44180000  0.20980000  0.02500000  0.54 0.1504816102
C  C171  1  0.22560000  0.52250000  0.01050000  0.54 -0.18995841
C  C172  1  0.17260000  0.48160000  0.03100000  0.54 0.1436072203
C  C173  1  0.20220000  0.45840000  0.06600000  0.54 -0.1101485136
C  C174  1  0.28480000  0.47610000  0.08050000  0.54 -0.0025074874
C  C175  1  0.33780000  0.51700000  0.06000000  0.54 -0.1101485136
C  C176  1  0.30820000  0.54020000  0.02500000  0.54 0.1504816102
C  C185  1  0.22560000  0.02250000  0.51050000  0.54 -0.18995841
C  C186  1  0.17260000  0.98160000  0.53100000  0.54 0.1436072203
C  C187  1  0.20220000  0.95840000  0.56600000  0.54 -0.1101485136
C  C188  1  0.28480000  0.97610000  0.58050000  0.54 -0.0025074874
C  C189  1  0.33780000  0.01700000  0.56000000  0.54 -0.1101485136
C  C190  1  0.30820000  0.04020000  0.52500000  0.54 0.1504816102
C  C199  1  0.72560000  0.52250000  0.51050000  0.54 -0.18995841
C  C200  1  0.67260000  0.48160000  0.53100000  0.54 0.1436072203
C  C201  1  0.70220000  0.45840000  0.56600000  0.54 -0.1101485136
C  C202  1  0.78480000  0.47610000  0.58050000  0.54 -0.0025074874
C  C203  1  0.83780000  0.51700000  0.56000000  0.54 -0.1101485136
C  C204  1  0.80820000  0.54020000  0.52500000  0.54 0.1436072203
C  C213  1  0.72560000  0.02250000  0.01050000  0.54 -0.18995841
C  C214  1  0.67260000  0.98160000  0.03100000  0.54 0.1436072203
C  C215  1  0.70220000  0.95840000  0.06600000  0.54 -0.1101485136
C  C216  1  0.78480000  0.97610000  0.08050000  0.54 -0.0025074874
C  C217  1  0.83780000  0.01700000  0.06000000  0.54 -0.1101485136
C  C218  1  0.80820000  0.04020000  0.02500000  0.54 0.1436072203
C  C227  1  0.97560000  0.27250000  0.98950000  0.54 -0.18995841
C  C228  1  0.92260000  0.23160000  0.96900000  0.54 0.1436072203
C  C229  1  0.95220000  0.20840000  0.93400000  0.54 -0.1101485136
C  C230  1  0.03480000  0.22610000  0.91950000  0.54 -0.0025074874
C  C231  1  0.08780000  0.26700000  0.94000000  0.54 -0.1101485136
C  C232  1  0.05820000  0.29020000  0.97500000  0.54 0.1504816102
C  C241  1  0.97560000  0.77250000  0.48950000  0.54 -0.18995841
C  C242  1  0.92260000  0.73160000  0.46900000  0.54 0.1436072203
C  C243  1  0.95220000  0.70840000  0.43400000  0.54 -0.1101485136
C  C244  1  0.03480000  0.72610000  0.41950000  0.54 -0.0025074874
C  C245  1  0.08780000  0.76700000  0.44000000  0.54 -0.1101485136
C  C246  1  0.05820000  0.79020000  0.47500000  0.54 0.1504816102
C  C255  1  0.47560000  0.27250000  0.48950000  0.54 -0.18995841
C  C256  1  0.42260000  0.23160000  0.46900000  0.54 0.1436072203
C  C257  1  0.45220000  0.20840000  0.43400000  0.54 -0.1101485136
C  C258  1  0.53480000  0.22610000  0.41950000  0.54 -0.0025074874
C  C259  1  0.58780000  0.26700000  0.44000000  0.54 -0.1101485136
C  C260  1  0.55820000  0.29020000  0.47500000  0.54 0.1504816102
C  C269  1  0.47560000  0.77250000  0.98950000  0.54 -0.18995841
C  C270  1  0.42260000  0.73160000  0.96900000  0.54 0.1436072203
C  C271  1  0.45220000  0.70840000  0.93400000  0.54 -0.1101485136
C  C272  1  0.53480000  0.72610000  0.91950000  0.54 -0.0025074874
C  C273  1  0.58780000  0.76700000  0.94000000  0.54 -0.1101485136
C  C274  1  0.55820000  0.79020000  0.97500000  0.54 0.1436072203
C  C283  1  0.77440000  0.47750000  0.98950000  0.54 -0.18995841
C  C284  1  0.82740000  0.51840000  0.96900000  0.54 0.1436072203
C  C285  1  0.79780000  0.54160000  0.93400000  0.54 -0.1101485136
C  C286  1  0.71520000  0.52390000  0.91950000  0.54 -0.0025074874
C  C287  1  0.66220000  0.48300000  0.94000000  0.54 -0.1101485136
C  C288  1  0.69180000  0.45980000  0.97500000  0.54 0.1504816102
C  C297  1  0.77440000  0.97750000  0.48950000  0.54 -0.18995841
C  C298  1  0.82740000  0.01840000  0.46900000  0.54 0.1436072203
C  C299  1  0.79780000  0.04160000  0.43400000  0.54 -0.1101485136
C  C300  1  0.71520000  0.02390000  0.41950000  0.54 -0.0025074874
C  C301  1  0.66220000  0.98300000  0.44000000  0.54 -0.1101485136
C  C302  1  0.69180000  0.95980000  0.47500000  0.54 0.1436072203
C  C311  1  0.27440000  0.47750000  0.48950000  0.54 -0.18995841
C  C312  1  0.32740000  0.51840000  0.46900000  0.54 0.1436072203
C  C313  1  0.29780000  0.54160000  0.43400000  0.54 -0.1101485136
C  C314  1  0.21520000  0.52390000  0.41950000  0.54 -0.0025074874
C  C315  1  0.16220000  0.48300000  0.44000000  0.54 -0.1101485136
C  C316  1  0.19180000  0.45980000  0.47500000  0.54 0.1504816102
C  C325  1  0.27440000  0.97750000  0.98950000  0.54 -0.18995841
C  C326  1  0.32740000  0.01840000  0.96900000  0.54 0.1436072203
C  C327  1  0.29780000  0.04160000  0.93400000  0.54 -0.1101485136
C  C328  1  0.21520000  0.02390000  0.91950000  0.54 -0.0025074874
C  C329  1  0.16220000  0.98300000  0.94000000  0.54 -0.1101485136
C  C330  1  0.19180000  0.95980000  0.97500000  0.54 0.1504816102
C  C339  1  0.22560000  0.72750000  0.23950000  0.54 -0.18995841
C  C340  1  0.17260000  0.76840000  0.21900000  0.54 0.1436072203
C  C341  1  0.20220000  0.79160000  0.18400000  0.54 -0.1101485136
C  C342  1  0.28480000  0.77390000  0.16950000  0.54 -0.0025074874
C  C343  1  0.33780000  0.73300000  0.19000000  0.54 -0.1101485136
C  C344  1  0.30820000  0.70980000  0.22500000  0.54 0.1504816102
C  C353  1  0.22560000  0.22750000  0.73950000  0.54 -0.18995841
C  C354  1  0.17260000  0.26840000  0.71900000  0.54 0.1436072203
C  C355  1  0.20220000  0.29160000  0.68400000  0.54 -0.1101485136
C  C356  1  0.28480000  0.27390000  0.66950000  0.54 -0.0025074874
C  C357  1  0.33780000  0.23300000  0.69000000  0.54 -0.1101485136
C  C358  1  0.30820000  0.20980000  0.72500000  0.54 0.1504816102
C  C367  1  0.72560000  0.72750000  0.73950000  0.54 -0.18995841
C  C368  1  0.67260000  0.76840000  0.71900000  0.54 0.1436072203
C  C369  1  0.70220000  0.79160000  0.68400000  0.54 -0.1101485136
C  C370  1  0.78480000  0.77390000  0.66950000  0.54 -0.0025074874
C  C371  1  0.83780000  0.73300000  0.69000000  0.54 -0.1101485136
C  C372  1  0.80820000  0.70980000  0.72500000  0.54 0.1436072203
C  C381  1  0.72560000  0.22750000  0.23950000  0.54 -0.18995841
C  C382  1  0.67260000  0.26840000  0.21900000  0.54 0.1436072203
C  C383  1  0.70220000  0.29160000  0.18400000  0.54 -0.1101485136
C  C384  1  0.78480000  0.27390000  0.16950000  0.54 -0.0025074874
C  C385  1  0.83780000  0.23300000  0.19000000  0.54 -0.1101485136
C  C386  1  0.80820000  0.20980000  0.22500000  0.54 0.1504816102
C  C395  1  0.02440000  0.52250000  0.23950000  0.54 -0.18995841
C  C396  1  0.07740000  0.48160000  0.21900000  0.54 0.1436072203
C  C397  1  0.04780000  0.45840000  0.18400000  0.54 -0.1101485136
C  C398  1  0.96520000  0.47610000  0.16950000  0.54 -0.0025074874
C  C399  1  0.91220000  0.51700000  0.19000000  0.54 -0.1101485136
C  C400  1  0.94180000  0.54020000  0.22500000  0.54 0.1436072203
C  C409  1  0.02440000  0.02250000  0.73950000  0.54 -0.18995841
C  C410  1  0.07740000  0.98160000  0.71900000  0.54 0.1436072203
C  C411  1  0.04780000  0.95840000  0.68400000  0.54 -0.1101485136
C  C412  1  0.96520000  0.97610000  0.66950000  0.54 -0.0025074874
C  C413  1  0.91220000  0.01700000  0.69000000  0.54 -0.1101485136
C  C414  1  0.94180000  0.04020000  0.72500000  0.54 0.1436072203
C  C423  1  0.52440000  0.52250000  0.73950000  0.54 -0.18995841
C  C424  1  0.57740000  0.48160000  0.71900000  0.54 0.1436072203
C  C425  1  0.54780000  0.45840000  0.68400000  0.54 -0.1101485136
C  C426  1  0.46520000  0.47610000  0.66950000  0.54 -0.0025074874
C  C427  1  0.41220000  0.51700000  0.69000000  0.54 -0.1101485136
C  C428  1  0.44180000  0.54020000  0.72500000  0.54 0.1436072203
C  C437  1  0.52440000  0.02250000  0.23950000  0.54 -0.18995841
C  C438  1  0.57740000  0.98160000  0.21900000  0.54 0.1436072203
C  C439  1  0.54780000  0.95840000  0.18400000  0.54 -0.1101485136
C  C440  1  0.46520000  0.97610000  0.16950000  0.54 -0.0025074874
C  C441  1  0.41220000  0.01700000  0.19000000  0.54 -0.1101485136
C  C442  1  0.44180000  0.04020000  0.22500000  0.54 0.1504816102
N  N1  1  0.62900000  0.32690000  0.75700000  0.14 -0.2004809658
N  N5  1  0.62900000  0.82690000  0.25700000  0.14 -0.2004809658
N  N9  1  0.12900000  0.32690000  0.25700000  0.14 -0.2004809658
N  N13  1  0.12900000  0.82690000  0.75700000  0.14 -0.2004809658
N  N17  1  0.12100000  0.42310000  0.75700000  0.14 -0.2004809658
N  N21  1  0.12100000  0.92310000  0.25700000  0.14 -0.2004809658
N  N25  1  0.62100000  0.42310000  0.25700000  0.14 -0.2004809658
N  N29  1  0.62100000  0.92310000  0.75700000  0.14 -0.2004809658
N  N33  1  0.87900000  0.67310000  0.00700000  0.14 -0.2004809658
N  N37  1  0.87900000  0.17310000  0.50700000  0.14 -0.2004809658
N  N41  1  0.37900000  0.67310000  0.50700000  0.14 -0.2004809658
N  N45  1  0.37900000  0.17310000  0.00700000  0.14 -0.2004809658
N  N49  1  0.37100000  0.57690000  0.00700000  0.14 -0.2004809658
N  N53  1  0.37100000  0.07690000  0.50700000  0.14 -0.2004809658
N  N57  1  0.87100000  0.57690000  0.50700000  0.14 -0.2004809658
N  N61  1  0.87100000  0.07690000  0.00700000  0.14 -0.2004809658
N  N65  1  0.12100000  0.32690000  0.99300000  0.14 -0.2004809658
N  N69  1  0.12100000  0.82690000  0.49300000  0.14 -0.2004809658
N  N73  1  0.62100000  0.32690000  0.49300000  0.14 -0.2004809658
N  N77  1  0.62100000  0.82690000  0.99300000  0.14 -0.2004809658
N  N81  1  0.62900000  0.42310000  0.99300000  0.14 -0.2004809658
N  N85  1  0.62900000  0.92310000  0.49300000  0.14 -0.2004809658
N  N89  1  0.12900000  0.42310000  0.49300000  0.14 -0.2004809658
N  N93  1  0.12900000  0.92310000  0.99300000  0.14 -0.2004809658
N  N97  1  0.37100000  0.67310000  0.24300000  0.14 -0.2004809658
N  N101  1  0.37100000  0.17310000  0.74300000  0.14 -0.2004809658
N  N105  1  0.87100000  0.67310000  0.74300000  0.14 -0.2004809658
N  N109  1  0.87100000  0.17310000  0.24300000  0.14 -0.2004809658
N  N113  1  0.87900000  0.57690000  0.24300000  0.14 -0.2004809658
N  N117  1  0.87900000  0.07690000  0.74300000  0.14 -0.2004809658
N  N121  1  0.37900000  0.57690000  0.74300000  0.14 -0.2004809658
N  N125  1  0.37900000  0.07690000  0.24300000  0.14 -0.2004809658
N  N4  1  0.93150000  0.24680000  0.78330000  0.34 -0.2186405623
N  N8  1  0.93150000  0.74680000  0.28330000  0.34 -0.2186405623
N  N12  1  0.43150000  0.24680000  0.28330000  0.34 -0.2186405623
N  N16  1  0.43150000  0.74680000  0.78330000  0.34 -0.2186405623
N  N20  1  0.81850000  0.50320000  0.78330000  0.34 -0.2186405623
N  N24  1  0.81850000  0.00320000  0.28330000  0.34 -0.2186405623
N  N28  1  0.31850000  0.50320000  0.28330000  0.34 -0.2186405623
N  N32  1  0.31850000  0.00320000  0.78330000  0.34 -0.2186405623
N  N36  1  0.18150000  0.75320000  0.03330000  0.34 -0.2186405623
N  N40  1  0.18150000  0.25320000  0.53330000  0.34 -0.2186405623
N  N44  1  0.68150000  0.75320000  0.53330000  0.34 -0.2186405623
N  N48  1  0.68150000  0.25320000  0.03330000  0.34 -0.2186405623
N  N52  1  0.06850000  0.49680000  0.03330000  0.34 -0.2186405623
N  N56  1  0.06850000  0.99680000  0.53330000  0.34 -0.2186405623
N  N60  1  0.56850000  0.49680000  0.53330000  0.34 -0.2186405623
N  N64  1  0.56850000  0.99680000  0.03330000  0.34 -0.2186405623
N  N68  1  0.81850000  0.24680000  0.96670000  0.34 -0.2186405623
N  N72  1  0.81850000  0.74680000  0.46670000  0.34 -0.2186405623
N  N76  1  0.31850000  0.24680000  0.46670000  0.34 -0.2186405623
N  N80  1  0.31850000  0.74680000  0.96670000  0.34 -0.2186405623
N  N84  1  0.93150000  0.50320000  0.96670000  0.34 -0.2186405623
N  N88  1  0.93150000  0.00320000  0.46670000  0.34 -0.2186405623
N  N92  1  0.43150000  0.50320000  0.46670000  0.34 -0.2186405623
N  N96  1  0.43150000  0.00320000  0.96670000  0.34 -0.2186405623
N  N100  1  0.06850000  0.75320000  0.21670000  0.34 -0.2186405623
N  N104  1  0.06850000  0.25320000  0.71670000  0.34 -0.2186405623
N  N108  1  0.56850000  0.75320000  0.71670000  0.34 -0.2186405623
N  N112  1  0.56850000  0.25320000  0.21670000  0.34 -0.2186405623
N  N116  1  0.18150000  0.49680000  0.21670000  0.34 -0.2186405623
N  N120  1  0.18150000  0.99680000  0.71670000  0.34 -0.2186405623
N  N124  1  0.68150000  0.49680000  0.71670000  0.34 -0.2186405623
N  N128  1  0.68150000  0.99680000  0.21670000  0.34 -0.2186405623
N  N2  1  0.90800000  0.21470000  0.77130000  0.41 -0.2186405623
N  N6  1  0.90800000  0.71470000  0.27130000  0.41 -0.2186405623
N  N10  1  0.40800000  0.21470000  0.27130000  0.41 -0.2186405623
N  N14  1  0.40800000  0.71470000  0.77130000  0.41 -0.2186405623
N  N18  1  0.84200000  0.53530000  0.77130000  0.41 -0.2186405623
N  N22  1  0.84200000  0.03530000  0.27130000  0.41 -0.2186405623
N  N26  1  0.34200000  0.53530000  0.27130000  0.41 -0.2186405623
N  N30  1  0.34200000  0.03530000  0.77130000  0.41 -0.2186405623
N  N34  1  0.15800000  0.78530000  0.02130000  0.41 -0.2186405623
N  N38  1  0.15800000  0.28530000  0.52130000  0.41 -0.2186405623
N  N42  1  0.65800000  0.78530000  0.52130000  0.41 -0.2186405623
N  N46  1  0.65800000  0.28530000  0.02130000  0.41 -0.2186405623
N  N50  1  0.09200000  0.46470000  0.02130000  0.41 -0.2186405623
N  N54  1  0.09200000  0.96470000  0.52130000  0.41 -0.2186405623
N  N58  1  0.59200000  0.46470000  0.52130000  0.41 -0.2186405623
N  N62  1  0.59200000  0.96470000  0.02130000  0.41 -0.2186405623
N  N66  1  0.84200000  0.21470000  0.97870000  0.41 -0.2186405623
N  N70  1  0.84200000  0.71470000  0.47870000  0.41 -0.2186405623
N  N74  1  0.34200000  0.21470000  0.47870000  0.41 -0.2186405623
N  N78  1  0.34200000  0.71470000  0.97870000  0.41 -0.2186405623
N  N82  1  0.90800000  0.53530000  0.97870000  0.41 -0.2186405623
N  N86  1  0.90800000  0.03530000  0.47870000  0.41 -0.2186405623
N  N90  1  0.40800000  0.53530000  0.47870000  0.41 -0.2186405623
N  N94  1  0.40800000  0.03530000  0.97870000  0.41 -0.2186405623
N  N98  1  0.09200000  0.78530000  0.22870000  0.41 -0.2186405623
N  N102  1  0.09200000  0.28530000  0.72870000  0.41 -0.2186405623
N  N106  1  0.59200000  0.78530000  0.72870000  0.41 -0.2186405623
N  N110  1  0.59200000  0.28530000  0.22870000  0.41 -0.2186405623
N  N114  1  0.15800000  0.46470000  0.22870000  0.41 -0.2186405623
N  N118  1  0.15800000  0.96470000  0.72870000  0.41 -0.2186405623
N  N122  1  0.65800000  0.46470000  0.72870000  0.41 -0.2186405623
N  N126  1  0.65800000  0.96470000  0.22870000  0.41 -0.2186405623
N  N3  1  0.61900000  0.30200000  0.75160000  0.11 -0.18995841
N  N7  1  0.61900000  0.80200000  0.25160000  0.11 -0.18995841
N  N11  1  0.11900000  0.30200000  0.25160000  0.11 -0.18995841
N  N15  1  0.11900000  0.80200000  0.75160000  0.11 -0.18995841
N  N19  1  0.13100000  0.44800000  0.75160000  0.11 -0.18995841
N  N23  1  0.13100000  0.94800000  0.25160000  0.11 -0.18995841
N  N27  1  0.63100000  0.44800000  0.25160000  0.11 -0.18995841
N  N31  1  0.63100000  0.94800000  0.75160000  0.11 -0.18995841
N  N35  1  0.86900000  0.69800000  0.00160000  0.11 -0.18995841
N  N39  1  0.86900000  0.19800000  0.50160000  0.11 -0.18995841
N  N43  1  0.36900000  0.69800000  0.50160000  0.11 -0.18995841
N  N47  1  0.36900000  0.19800000  0.00160000  0.11 -0.18995841
N  N51  1  0.38100000  0.55200000  0.00160000  0.11 -0.18995841
N  N55  1  0.38100000  0.05200000  0.50160000  0.11 -0.18995841
N  N59  1  0.88100000  0.55200000  0.50160000  0.11 -0.18995841
N  N63  1  0.88100000  0.05200000  0.00160000  0.11 -0.18995841
N  N67  1  0.13100000  0.30200000  0.99840000  0.11 -0.18995841
N  N71  1  0.13100000  0.80200000  0.49840000  0.11 -0.18995841
N  N75  1  0.63100000  0.30200000  0.49840000  0.11 -0.18995841
N  N79  1  0.63100000  0.80200000  0.99840000  0.11 -0.18995841
N  N83  1  0.61900000  0.44800000  0.99840000  0.11 -0.18995841
N  N87  1  0.61900000  0.94800000  0.49840000  0.11 -0.18995841
N  N91  1  0.11900000  0.44800000  0.49840000  0.11 -0.18995841
N  N95  1  0.11900000  0.94800000  0.99840000  0.11 -0.18995841
N  N99  1  0.38100000  0.69800000  0.24840000  0.11 -0.18995841
N  N103  1  0.38100000  0.19800000  0.74840000  0.11 -0.18995841
N  N107  1  0.88100000  0.69800000  0.74840000  0.11 -0.18995841
N  N111  1  0.88100000  0.19800000  0.24840000  0.11 -0.18995841
N  N115  1  0.86900000  0.55200000  0.24840000  0.11 -0.18995841
N  N119  1  0.86900000  0.05200000  0.74840000  0.11 -0.18995841
N  N123  1  0.36900000  0.55200000  0.74840000  0.11 -0.18995841
N  N127  1  0.36900000  0.05200000  0.24840000  0.11 -0.18995841
O  O1  1  0.89030000  0.30270000  0.71670000  1.0 -0.458774188
O  O2  1  0.99370000  0.41500000  0.70480000  1.0 -0.458774188
O  O3  1  0.98950000  0.33070000  0.63850000  1.0 -0.5009712534
O  O4  1  0.85280000  0.30470000  0.62430000  1.0 -0.4530032319
O  O5  1  0.89030000  0.80270000  0.21670000  1.0 -0.458774188
O  O6  1  0.99370000  0.91500000  0.20480000  1.0 -0.458774188
O  O7  1  0.98950000  0.83070000  0.13850000  1.0 -0.5009712534
O  O8  1  0.85280000  0.80470000  0.12430000  1.0 -0.4530032319
O  O9  1  0.39030000  0.30270000  0.21670000  1.0 -0.458774188
O  O10  1  0.49370000  0.41500000  0.20480000  1.0 -0.458774188
O  O11  1  0.48950000  0.33070000  0.13850000  1.0 -0.5009712534
O  O12  1  0.35280000  0.30470000  0.12430000  1.0 -0.4530032319
O  O13  1  0.39030000  0.80270000  0.71670000  1.0 -0.458774188
O  O14  1  0.49370000  0.91500000  0.70480000  1.0 -0.458774188
O  O15  1  0.48950000  0.83070000  0.63850000  1.0 -0.5009712534
O  O16  1  0.35280000  0.80470000  0.62430000  1.0 -0.4530032319
O  O17  1  0.85970000  0.44730000  0.71670000  1.0 -0.458774188
O  O18  1  0.75630000  0.33500000  0.70480000  1.0 -0.458774188
O  O19  1  0.76050000  0.41930000  0.63850000  1.0 -0.5009712534
O  O20  1  0.89720000  0.44530000  0.62430000  1.0 -0.4530032319
O  O21  1  0.85970000  0.94730000  0.21670000  1.0 -0.458774188
O  O22  1  0.75630000  0.83500000  0.20480000  1.0 -0.458774188
O  O23  1  0.76050000  0.91930000  0.13850000  1.0 -0.5009712534
O  O24  1  0.89720000  0.94530000  0.12430000  1.0 -0.4530032319
O  O25  1  0.35970000  0.44730000  0.21670000  1.0 -0.458774188
O  O26  1  0.25630000  0.33500000  0.20480000  1.0 -0.458774188
O  O27  1  0.26050000  0.41930000  0.13850000  1.0 -0.5009712534
O  O28  1  0.39720000  0.44530000  0.12430000  1.0 -0.4530032319
O  O29  1  0.35970000  0.94730000  0.71670000  1.0 -0.458774188
O  O30  1  0.25630000  0.83500000  0.70480000  1.0 -0.458774188
O  O31  1  0.26050000  0.91930000  0.63850000  1.0 -0.5009712534
O  O32  1  0.39720000  0.94530000  0.62430000  1.0 -0.4530032319
O  O33  1  0.14030000  0.69730000  0.96670000  1.0 -0.458774188
O  O34  1  0.24370000  0.58500000  0.95480000  1.0 -0.458774188
O  O35  1  0.23950000  0.66930000  0.88850000  1.0 -0.5009712534
O  O36  1  0.10280000  0.69530000  0.87430000  1.0 -0.4530032319
O  O37  1  0.14030000  0.19730000  0.46670000  1.0 -0.458774188
O  O38  1  0.24370000  0.08500000  0.45480000  1.0 -0.458774188
O  O39  1  0.23950000  0.16930000  0.38850000  1.0 -0.5009712534
O  O40  1  0.10280000  0.19530000  0.37430000  1.0 -0.4530032319
O  O41  1  0.64030000  0.69730000  0.46670000  1.0 -0.458774188
O  O42  1  0.74370000  0.58500000  0.45480000  1.0 -0.458774188
O  O43  1  0.73950000  0.66930000  0.38850000  1.0 -0.5009712534
O  O44  1  0.60280000  0.69530000  0.37430000  1.0 -0.4530032319
O  O45  1  0.64030000  0.19730000  0.96670000  1.0 -0.458774188
O  O46  1  0.74370000  0.08500000  0.95480000  1.0 -0.458774188
O  O47  1  0.73950000  0.16930000  0.88850000  1.0 -0.5009712534
O  O48  1  0.60280000  0.19530000  0.87430000  1.0 -0.4530032319
O  O49  1  0.10970000  0.55270000  0.96670000  1.0 -0.458774188
O  O50  1  0.00630000  0.66500000  0.95480000  1.0 -0.458774188
O  O51  1  0.01050000  0.58070000  0.88850000  1.0 -0.5009712534
O  O52  1  0.14720000  0.55470000  0.87430000  1.0 -0.4530032319
O  O53  1  0.10970000  0.05270000  0.46670000  1.0 -0.458774188
O  O54  1  0.00630000  0.16500000  0.45480000  1.0 -0.458774188
O  O55  1  0.01050000  0.08070000  0.38850000  1.0 -0.5009712534
O  O56  1  0.14720000  0.05470000  0.37430000  1.0 -0.4530032319
O  O57  1  0.60970000  0.55270000  0.46670000  1.0 -0.458774188
O  O58  1  0.50630000  0.66500000  0.45480000  1.0 -0.458774188
O  O59  1  0.51050000  0.58070000  0.38850000  1.0 -0.5009712534
O  O60  1  0.64720000  0.55470000  0.37430000  1.0 -0.4530032319
O  O61  1  0.60970000  0.05270000  0.96670000  1.0 -0.458774188
O  O62  1  0.50630000  0.16500000  0.95480000  1.0 -0.458774188
O  O63  1  0.51050000  0.08070000  0.88850000  1.0 -0.5009712534
O  O64  1  0.64720000  0.05470000  0.87430000  1.0 -0.4530032319
O  O65  1  0.85970000  0.30270000  0.03330000  1.0 -0.458774188
O  O66  1  0.75630000  0.41500000  0.04520000  1.0 -0.458774188
O  O67  1  0.76050000  0.33070000  0.11150000  1.0 -0.5009712534
O  O68  1  0.89720000  0.30470000  0.12570000  1.0 -0.4530032319
O  O69  1  0.85970000  0.80270000  0.53330000  1.0 -0.458774188
O  O70  1  0.75630000  0.91500000  0.54520000  1.0 -0.458774188
O  O71  1  0.76050000  0.83070000  0.61150000  1.0 -0.5009712534
O  O72  1  0.89720000  0.80470000  0.62570000  1.0 -0.4530032319
O  O73  1  0.35970000  0.30270000  0.53330000  1.0 -0.458774188
O  O74  1  0.25630000  0.41500000  0.54520000  1.0 -0.458774188
O  O75  1  0.26050000  0.33070000  0.61150000  1.0 -0.5009712534
O  O76  1  0.39720000  0.30470000  0.62570000  1.0 -0.4530032319
O  O77  1  0.35970000  0.80270000  0.03330000  1.0 -0.458774188
O  O78  1  0.25630000  0.91500000  0.04520000  1.0 -0.458774188
O  O79  1  0.26050000  0.83070000  0.11150000  1.0 -0.5009712534
O  O80  1  0.39720000  0.80470000  0.12570000  1.0 -0.4530032319
O  O81  1  0.89030000  0.44730000  0.03330000  1.0 -0.458774188
O  O82  1  0.99370000  0.33500000  0.04520000  1.0 -0.458774188
O  O83  1  0.98950000  0.41930000  0.11150000  1.0 -0.5009712534
O  O84  1  0.85280000  0.44530000  0.12570000  1.0 -0.4530032319
O  O85  1  0.89030000  0.94730000  0.53330000  1.0 -0.458774188
O  O86  1  0.99370000  0.83500000  0.54520000  1.0 -0.458774188
O  O87  1  0.98950000  0.91930000  0.61150000  1.0 -0.5009712534
O  O88  1  0.85280000  0.94530000  0.62570000  1.0 -0.4530032319
O  O89  1  0.39030000  0.44730000  0.53330000  1.0 -0.458774188
O  O90  1  0.49370000  0.33500000  0.54520000  1.0 -0.458774188
O  O91  1  0.48950000  0.41930000  0.61150000  1.0 -0.5009712534
O  O92  1  0.35280000  0.44530000  0.62570000  1.0 -0.4530032319
O  O93  1  0.39030000  0.94730000  0.03330000  1.0 -0.458774188
O  O94  1  0.49370000  0.83500000  0.04520000  1.0 -0.458774188
O  O95  1  0.48950000  0.91930000  0.11150000  1.0 -0.5009712534
O  O96  1  0.35280000  0.94530000  0.12570000  1.0 -0.4530032319
O  O97  1  0.10970000  0.69730000  0.28330000  1.0 -0.458774188
O  O98  1  0.00630000  0.58500000  0.29520000  1.0 -0.458774188
O  O99  1  0.01050000  0.66930000  0.36150000  1.0 -0.5009712534
O  O100  1  0.14720000  0.69530000  0.37570000  1.0 -0.4530032319
O  O101  1  0.10970000  0.19730000  0.78330000  1.0 -0.458774188
O  O102  1  0.00630000  0.08500000  0.79520000  1.0 -0.458774188
O  O103  1  0.01050000  0.16930000  0.86150000  1.0 -0.5009712534
O  O104  1  0.14720000  0.19530000  0.87570000  1.0 -0.4530032319
O  O105  1  0.60970000  0.69730000  0.78330000  1.0 -0.458774188
O  O106  1  0.50630000  0.58500000  0.79520000  1.0 -0.458774188
O  O107  1  0.51050000  0.66930000  0.86150000  1.0 -0.5009712534
O  O108  1  0.64720000  0.69530000  0.87570000  1.0 -0.4530032319
O  O109  1  0.60970000  0.19730000  0.28330000  1.0 -0.458774188
O  O110  1  0.50630000  0.08500000  0.29520000  1.0 -0.458774188
O  O111  1  0.51050000  0.16930000  0.36150000  1.0 -0.5009712534
O  O112  1  0.64720000  0.19530000  0.37570000  1.0 -0.4530032319
O  O113  1  0.14030000  0.55270000  0.28330000  1.0 -0.458774188
O  O114  1  0.24370000  0.66500000  0.29520000  1.0 -0.458774188
O  O115  1  0.23950000  0.58070000  0.36150000  1.0 -0.5009712534
O  O116  1  0.10280000  0.55470000  0.37570000  1.0 -0.4530032319
O  O117  1  0.14030000  0.05270000  0.78330000  1.0 -0.458774188
O  O118  1  0.24370000  0.16500000  0.79520000  1.0 -0.458774188
O  O119  1  0.23950000  0.08070000  0.86150000  1.0 -0.5009712534
O  O120  1  0.10280000  0.05470000  0.87570000  1.0 -0.4530032319
O  O121  1  0.64030000  0.55270000  0.78330000  1.0 -0.458774188
O  O122  1  0.74370000  0.66500000  0.79520000  1.0 -0.458774188
O  O123  1  0.73950000  0.58070000  0.86150000  1.0 -0.5009712534
O  O124  1  0.60280000  0.55470000  0.87570000  1.0 -0.4530032319
O  O125  1  0.64030000  0.05270000  0.28330000  1.0 -0.458774188
O  O126  1  0.74370000  0.16500000  0.29520000  1.0 -0.458774188
O  O127  1  0.73950000  0.08070000  0.36150000  1.0 -0.5009712534
O  O128  1  0.60280000  0.05470000  0.37570000  1.0 -0.4530032319
