# DDEC6 charges by PACMAN v1.1 (https://github.com/mtap-research/PACMAN-charge/)
data_d3nj01937c2_ASR_pacman
_symmetry_space_group_name_H-M   'P 1'
_cell_length_a   23.11500000
_cell_length_b   23.11500000
_cell_length_c   23.11500000
_cell_angle_alpha   90.00000000
_cell_angle_beta   90.00000000
_cell_angle_gamma   90.00000000
_symmetry_Int_Tables_number   1
_chemical_formula_structural   Zn11H42(C45O19)2
_chemical_formula_sum   'Zn44.0 H168 C360 O152'
_cell_volume   12350.41904587
_cell_formula_units_Z   4
loop_
 _symmetry_equiv_pos_site_id
 _symmetry_equiv_pos_as_xyz
  1  'x, y, z'
loop_
 _atom_site_type_symbol
 _atom_site_label
 _atom_site_symmetry_multiplicity
 _atom_site_fract_x
 _atom_site_fract_y
 _atom_site_fract_z
 _atom_site_occupancy
 _atom_site_charge
Zn  Zn1  1  0.43991000  0.50000000  0.00000000  1.0 0.8179008355
Zn  Zn2  1  0.56009000  0.50000000  0.00000000  1.0 0.8179008355
Zn  Zn3  1  0.00000000  0.43991000  0.50000000  1.0 0.8179008355
Zn  Zn4  1  0.00000000  0.56009000  0.50000000  1.0 0.8179008355
Zn  Zn5  1  0.50000000  0.00000000  0.43991000  1.0 0.8179008355
Zn  Zn6  1  0.50000000  0.00000000  0.56009000  1.0 0.8179008355
Zn  Zn7  1  0.93991000  0.00000000  0.50000000  1.0 0.8179008355
Zn  Zn8  1  0.06009000  0.00000000  0.50000000  1.0 0.8179008355
Zn  Zn9  1  0.50000000  0.93991000  0.00000000  1.0 0.8179008355
Zn  Zn10  1  0.50000000  0.06009000  0.00000000  1.0 0.8179008355
Zn  Zn11  1  0.00000000  0.50000000  0.93991000  1.0 0.8179008355
Zn  Zn12  1  0.00000000  0.50000000  0.06009000  1.0 0.8179008355
Zn  Zn37  1  0.78700000  0.73460000  0.32790000  0.094 0.2524096161
Zn  Zn38  1  0.21300000  0.26540000  0.32790000  0.094 0.2524096161
Zn  Zn39  1  0.21300000  0.73460000  0.67210000  0.094 0.2524096161
Zn  Zn40  1  0.78700000  0.26540000  0.67210000  0.094 0.2524096161
Zn  Zn41  1  0.32790000  0.78700000  0.73460000  0.094 0.2524096161
Zn  Zn42  1  0.32790000  0.21300000  0.26540000  0.094 0.2524096161
Zn  Zn43  1  0.67210000  0.21300000  0.73460000  0.094 0.2524096161
Zn  Zn44  1  0.67210000  0.78700000  0.26540000  0.094 0.2524096161
Zn  Zn45  1  0.73460000  0.32790000  0.78700000  0.094 0.2524096161
Zn  Zn46  1  0.26540000  0.32790000  0.21300000  0.094 0.2524096161
Zn  Zn47  1  0.73460000  0.67210000  0.21300000  0.094 0.2524096161
Zn  Zn48  1  0.26540000  0.67210000  0.78700000  0.094 0.2524096161
Zn  Zn49  1  0.28700000  0.23460000  0.82790000  0.094 0.2524096161
Zn  Zn50  1  0.71300000  0.76540000  0.82790000  0.094 0.2524096161
Zn  Zn51  1  0.71300000  0.23460000  0.17210000  0.094 0.2524096161
Zn  Zn52  1  0.28700000  0.76540000  0.17210000  0.094 0.2524096161
Zn  Zn53  1  0.82790000  0.28700000  0.23460000  0.094 0.2524096161
Zn  Zn54  1  0.82790000  0.71300000  0.76540000  0.094 0.2524096161
Zn  Zn55  1  0.17210000  0.71300000  0.23460000  0.094 0.2524096161
Zn  Zn56  1  0.17210000  0.28700000  0.76540000  0.094 0.2524096161
Zn  Zn57  1  0.23460000  0.82790000  0.28700000  0.094 0.2524096161
Zn  Zn58  1  0.76540000  0.82790000  0.71300000  0.094 0.2524096161
Zn  Zn59  1  0.23460000  0.17210000  0.71300000  0.094 0.2524096161
Zn  Zn60  1  0.76540000  0.17210000  0.28700000  0.094 0.2524096161
Zn  Zn69  1  0.79700000  0.79700000  0.20300000  0.094 0.3721551687
Zn  Zn70  1  0.20300000  0.20300000  0.20300000  0.094 0.3721551687
Zn  Zn71  1  0.20300000  0.79700000  0.79700000  0.094 0.3721551687
Zn  Zn72  1  0.79700000  0.20300000  0.79700000  0.094 0.3721551687
Zn  Zn73  1  0.29700000  0.29700000  0.70300000  0.094 0.3721551687
Zn  Zn74  1  0.70300000  0.70300000  0.70300000  0.094 0.3721551687
Zn  Zn75  1  0.70300000  0.29700000  0.29700000  0.094 0.3721551687
Zn  Zn76  1  0.29700000  0.70300000  0.29700000  0.094 0.3721551687
Zn  Zn13  1  0.71055000  0.76555000  0.17882000  0.906 0.5565613001
Zn  Zn14  1  0.28945000  0.23445000  0.17882000  0.906 0.5565613001
Zn  Zn15  1  0.28945000  0.76555000  0.82118000  0.906 0.5565613001
Zn  Zn16  1  0.71055000  0.23445000  0.82118000  0.906 0.5565613001
Zn  Zn17  1  0.17882000  0.71055000  0.76555000  0.906 0.5565613001
Zn  Zn18  1  0.17882000  0.28945000  0.23445000  0.906 0.5565613001
Zn  Zn19  1  0.82118000  0.28945000  0.76555000  0.906 0.5565613001
Zn  Zn20  1  0.82118000  0.71055000  0.23445000  0.906 0.5565613001
Zn  Zn21  1  0.76555000  0.17882000  0.71055000  0.906 0.5565613001
Zn  Zn22  1  0.23445000  0.17882000  0.28945000  0.906 0.5565613001
Zn  Zn23  1  0.76555000  0.82118000  0.28945000  0.906 0.5565613001
Zn  Zn24  1  0.23445000  0.82118000  0.71055000  0.906 0.5565613001
Zn  Zn25  1  0.21055000  0.26555000  0.67882000  0.906 0.5565613001
Zn  Zn26  1  0.78945000  0.73445000  0.67882000  0.906 0.5565613001
Zn  Zn27  1  0.78945000  0.26555000  0.32118000  0.906 0.5565613001
Zn  Zn28  1  0.21055000  0.73445000  0.32118000  0.906 0.5565613001
Zn  Zn29  1  0.67882000  0.21055000  0.26555000  0.906 0.5565613001
Zn  Zn30  1  0.67882000  0.78945000  0.73445000  0.906 0.5565613001
Zn  Zn31  1  0.32118000  0.78945000  0.26555000  0.906 0.5565613001
Zn  Zn32  1  0.32118000  0.21055000  0.73445000  0.906 0.5565613001
Zn  Zn33  1  0.26555000  0.67882000  0.21055000  0.906 0.5565613001
Zn  Zn34  1  0.73445000  0.67882000  0.78945000  0.906 0.5565613001
Zn  Zn35  1  0.26555000  0.32118000  0.78945000  0.906 0.5565613001
Zn  Zn36  1  0.73445000  0.32118000  0.21055000  0.906 0.5565613001
Zn  Zn61  1  0.69967000  0.69967000  0.30033000  0.906 0.3887213521
Zn  Zn62  1  0.30033000  0.30033000  0.30033000  0.906 0.3887213521
Zn  Zn63  1  0.30033000  0.69967000  0.69967000  0.906 0.3887213521
Zn  Zn64  1  0.69967000  0.30033000  0.69967000  0.906 0.3887213521
Zn  Zn65  1  0.19967000  0.19967000  0.80033000  0.906 0.3887213521
Zn  Zn66  1  0.80033000  0.80033000  0.80033000  0.906 0.3887213521
Zn  Zn67  1  0.80033000  0.19967000  0.19967000  0.906 0.3887213521
Zn  Zn68  1  0.19967000  0.80033000  0.19967000  0.906 0.3887213521
H  H1  1  0.41249000  0.62433000  0.13528000  1.0 0.1214580774
H  H2  1  0.58751000  0.37567000  0.13528000  1.0 0.1214580774
H  H3  1  0.58751000  0.62433000  0.86472000  1.0 0.1214580774
H  H4  1  0.41249000  0.37567000  0.86472000  1.0 0.1214580774
H  H5  1  0.13528000  0.41249000  0.62433000  1.0 0.1214580774
H  H6  1  0.13528000  0.58751000  0.37567000  1.0 0.1214580774
H  H7  1  0.86472000  0.58751000  0.62433000  1.0 0.1214580774
H  H8  1  0.86472000  0.41249000  0.37567000  1.0 0.1214580774
H  H9  1  0.62433000  0.13528000  0.41249000  1.0 0.1214580774
H  H10  1  0.37567000  0.13528000  0.58751000  1.0 0.1214580774
H  H11  1  0.62433000  0.86472000  0.58751000  1.0 0.1214580774
H  H12  1  0.37567000  0.86472000  0.41249000  1.0 0.1214580774
H  H13  1  0.91249000  0.12433000  0.63528000  1.0 0.1214580774
H  H14  1  0.08751000  0.87567000  0.63528000  1.0 0.1214580774
H  H15  1  0.08751000  0.12433000  0.36472000  1.0 0.1214580774
H  H16  1  0.91249000  0.87567000  0.36472000  1.0 0.1214580774
H  H17  1  0.63528000  0.91249000  0.12433000  1.0 0.1214580774
H  H18  1  0.63528000  0.08751000  0.87567000  1.0 0.1214580774
H  H19  1  0.36472000  0.08751000  0.12433000  1.0 0.1214580774
H  H20  1  0.36472000  0.91249000  0.87567000  1.0 0.1214580774
H  H21  1  0.12433000  0.63528000  0.91249000  1.0 0.1214580774
H  H22  1  0.87567000  0.63528000  0.08751000  1.0 0.1214580774
H  H23  1  0.12433000  0.36472000  0.08751000  1.0 0.1214580774
H  H24  1  0.87567000  0.36472000  0.91249000  1.0 0.1214580774
H  H265  1  0.58567000  0.62587000  0.13602000  1.0 0.0983873844
H  H266  1  0.41433000  0.37413000  0.13602000  1.0 0.0983873844
H  H267  1  0.41433000  0.62587000  0.86398000  1.0 0.0983873844
H  H268  1  0.58567000  0.37413000  0.86398000  1.0 0.0983873844
H  H269  1  0.13602000  0.58567000  0.62587000  1.0 0.0983873844
H  H270  1  0.13602000  0.41433000  0.37413000  1.0 0.0983873844
H  H271  1  0.86398000  0.41433000  0.62587000  1.0 0.0983873844
H  H272  1  0.86398000  0.58567000  0.37413000  1.0 0.0983873844
H  H273  1  0.62587000  0.13602000  0.58567000  1.0 0.0983873844
H  H274  1  0.37413000  0.13602000  0.41433000  1.0 0.0983873844
H  H275  1  0.62587000  0.86398000  0.41433000  1.0 0.0983873844
H  H276  1  0.37413000  0.86398000  0.58567000  1.0 0.0983873844
H  H277  1  0.08567000  0.12587000  0.63602000  1.0 0.0983873844
H  H278  1  0.91433000  0.87413000  0.63602000  1.0 0.0983873844
H  H279  1  0.91433000  0.12587000  0.36398000  1.0 0.0983873844
H  H280  1  0.08567000  0.87413000  0.36398000  1.0 0.0983873844
H  H281  1  0.63602000  0.08567000  0.12587000  1.0 0.0983873844
H  H282  1  0.63602000  0.91433000  0.87413000  1.0 0.0983873844
H  H283  1  0.36398000  0.91433000  0.12587000  1.0 0.0983873844
H  H284  1  0.36398000  0.08567000  0.87413000  1.0 0.0983873844
H  H285  1  0.12587000  0.63602000  0.08567000  1.0 0.0983873844
H  H286  1  0.87413000  0.63602000  0.91433000  1.0 0.0983873844
H  H287  1  0.12587000  0.36398000  0.91433000  1.0 0.0983873844
H  H288  1  0.87413000  0.36398000  0.08567000  1.0 0.0983873844
H  H145  1  0.46316000  0.69719000  0.32736000  0.48 0.0751725842
H  H146  1  0.53684000  0.30281000  0.32736000  0.48 0.0751725842
H  H147  1  0.53684000  0.69719000  0.67264000  0.48 0.0751725842
H  H148  1  0.46316000  0.30281000  0.67264000  0.48 0.0751725842
H  H149  1  0.32736000  0.46316000  0.69719000  0.48 0.0751725842
H  H150  1  0.32736000  0.53684000  0.30281000  0.48 0.0751725842
H  H151  1  0.67264000  0.53684000  0.69719000  0.48 0.0751725842
H  H152  1  0.67264000  0.46316000  0.30281000  0.48 0.0751725842
H  H153  1  0.69719000  0.32736000  0.46316000  0.48 0.0751725842
H  H154  1  0.30281000  0.32736000  0.53684000  0.48 0.0751725842
H  H155  1  0.69719000  0.67264000  0.53684000  0.48 0.0751725842
H  H156  1  0.30281000  0.67264000  0.46316000  0.48 0.0751725842
H  H157  1  0.96316000  0.19719000  0.82736000  0.48 0.0751725842
H  H158  1  0.03684000  0.80281000  0.82736000  0.48 0.0751725842
H  H159  1  0.03684000  0.19719000  0.17264000  0.48 0.0751725842
H  H160  1  0.96316000  0.80281000  0.17264000  0.48 0.0751725842
H  H161  1  0.82736000  0.96316000  0.19719000  0.48 0.0751725842
H  H162  1  0.82736000  0.03684000  0.80281000  0.48 0.0751725842
H  H163  1  0.17264000  0.03684000  0.19719000  0.48 0.0751725842
H  H164  1  0.17264000  0.96316000  0.80281000  0.48 0.0751725842
H  H165  1  0.19719000  0.82736000  0.96316000  0.48 0.0751725842
H  H166  1  0.80281000  0.82736000  0.03684000  0.48 0.0751725842
H  H167  1  0.19719000  0.17264000  0.03684000  0.48 0.0751725842
H  H168  1  0.80281000  0.17264000  0.96316000  0.48 0.0751725842
H  H169  1  0.54624000  0.80533000  0.21834000  0.48 0.0684573119
H  H170  1  0.45376000  0.19467000  0.21834000  0.48 0.0684573119
H  H171  1  0.45376000  0.80533000  0.78166000  0.48 0.0684573119
H  H172  1  0.54624000  0.19467000  0.78166000  0.48 0.0684573119
H  H173  1  0.21834000  0.54624000  0.80533000  0.48 0.0684573119
H  H174  1  0.21834000  0.45376000  0.19467000  0.48 0.0684573119
H  H175  1  0.78166000  0.45376000  0.80533000  0.48 0.0684573119
H  H176  1  0.78166000  0.54624000  0.19467000  0.48 0.0684573119
H  H177  1  0.80533000  0.21834000  0.54624000  0.48 0.0684573119
H  H178  1  0.19467000  0.21834000  0.45376000  0.48 0.0684573119
H  H179  1  0.80533000  0.78166000  0.45376000  0.48 0.0684573119
H  H180  1  0.19467000  0.78166000  0.54624000  0.48 0.0684573119
H  H181  1  0.04624000  0.30533000  0.71834000  0.48 0.0684573119
H  H182  1  0.95376000  0.69467000  0.71834000  0.48 0.0684573119
H  H183  1  0.95376000  0.30533000  0.28166000  0.48 0.0684573119
H  H184  1  0.04624000  0.69467000  0.28166000  0.48 0.0684573119
H  H185  1  0.71834000  0.04624000  0.30533000  0.48 0.0684573119
H  H186  1  0.71834000  0.95376000  0.69467000  0.48 0.0684573119
H  H187  1  0.28166000  0.95376000  0.30533000  0.48 0.0684573119
H  H188  1  0.28166000  0.04624000  0.69467000  0.48 0.0684573119
H  H189  1  0.30533000  0.71834000  0.04624000  0.48 0.0684573119
H  H190  1  0.69467000  0.71834000  0.95376000  0.48 0.0684573119
H  H191  1  0.30533000  0.28166000  0.95376000  0.48 0.0684573119
H  H192  1  0.69467000  0.28166000  0.04624000  0.48 0.0684573119
H  H193  1  0.55460000  0.87339000  0.29222000  0.48 0.0888299533
H  H194  1  0.44540000  0.12661000  0.29222000  0.48 0.0888299533
H  H195  1  0.44540000  0.87339000  0.70778000  0.48 0.0888299533
H  H196  1  0.55460000  0.12661000  0.70778000  0.48 0.0888299533
H  H197  1  0.29222000  0.55460000  0.87339000  0.48 0.0888299533
H  H198  1  0.29222000  0.44540000  0.12661000  0.48 0.0888299533
H  H199  1  0.70778000  0.44540000  0.87339000  0.48 0.0888299533
H  H200  1  0.70778000  0.55460000  0.12661000  0.48 0.0888299533
H  H201  1  0.87339000  0.29222000  0.55460000  0.48 0.0888299533
H  H202  1  0.12661000  0.29222000  0.44540000  0.48 0.0888299533
H  H203  1  0.87339000  0.70778000  0.44540000  0.48 0.0888299533
H  H204  1  0.12661000  0.70778000  0.55460000  0.48 0.0888299533
H  H205  1  0.05460000  0.37339000  0.79222000  0.48 0.0888299533
H  H206  1  0.94540000  0.62661000  0.79222000  0.48 0.0888299533
H  H207  1  0.94540000  0.37339000  0.20778000  0.48 0.0888299533
H  H208  1  0.05460000  0.62661000  0.20778000  0.48 0.0888299533
H  H209  1  0.79222000  0.05460000  0.37339000  0.48 0.0888299533
H  H210  1  0.79222000  0.94540000  0.62661000  0.48 0.0888299533
H  H211  1  0.20778000  0.94540000  0.37339000  0.48 0.0888299533
H  H212  1  0.20778000  0.05460000  0.62661000  0.48 0.0888299533
H  H213  1  0.37339000  0.79222000  0.05460000  0.48 0.0888299533
H  H214  1  0.62661000  0.79222000  0.94540000  0.48 0.0888299533
H  H215  1  0.37339000  0.20778000  0.94540000  0.48 0.0888299533
H  H216  1  0.62661000  0.20778000  0.05460000  0.48 0.0888299533
H  H217  1  0.51724000  0.85335000  0.38367000  0.48 0.0888299533
H  H218  1  0.48276000  0.14665000  0.38367000  0.48 0.0888299533
H  H219  1  0.48276000  0.85335000  0.61633000  0.48 0.0888299533
H  H220  1  0.51724000  0.14665000  0.61633000  0.48 0.0888299533
H  H221  1  0.38367000  0.51724000  0.85335000  0.48 0.0888299533
H  H222  1  0.38367000  0.48276000  0.14665000  0.48 0.0888299533
H  H223  1  0.61633000  0.48276000  0.85335000  0.48 0.0888299533
H  H224  1  0.61633000  0.51724000  0.14665000  0.48 0.0888299533
H  H225  1  0.85335000  0.38367000  0.51724000  0.48 0.0888299533
H  H226  1  0.14665000  0.38367000  0.48276000  0.48 0.0888299533
H  H227  1  0.85335000  0.61633000  0.48276000  0.48 0.0888299533
H  H228  1  0.14665000  0.61633000  0.51724000  0.48 0.0888299533
H  H229  1  0.01724000  0.35335000  0.88367000  0.48 0.0888299533
H  H230  1  0.98276000  0.64665000  0.88367000  0.48 0.0888299533
H  H231  1  0.98276000  0.35335000  0.11633000  0.48 0.0888299533
H  H232  1  0.01724000  0.64665000  0.11633000  0.48 0.0888299533
H  H233  1  0.88367000  0.01724000  0.35335000  0.48 0.0888299533
H  H234  1  0.88367000  0.98276000  0.64665000  0.48 0.0888299533
H  H235  1  0.11633000  0.98276000  0.35335000  0.48 0.0888299533
H  H236  1  0.11633000  0.01724000  0.64665000  0.48 0.0888299533
H  H237  1  0.35335000  0.88367000  0.01724000  0.48 0.0888299533
H  H238  1  0.64665000  0.88367000  0.98276000  0.48 0.0888299533
H  H239  1  0.35335000  0.11633000  0.98276000  0.48 0.0888299533
H  H240  1  0.64665000  0.11633000  0.01724000  0.48 0.0888299533
H  H241  1  0.47152000  0.76525000  0.40124000  0.48 0.0888299533
H  H242  1  0.52848000  0.23475000  0.40124000  0.48 0.0888299533
H  H243  1  0.52848000  0.76525000  0.59876000  0.48 0.0888299533
H  H244  1  0.47152000  0.23475000  0.59876000  0.48 0.0888299533
H  H245  1  0.40124000  0.47152000  0.76525000  0.48 0.0888299533
H  H246  1  0.40124000  0.52848000  0.23475000  0.48 0.0888299533
H  H247  1  0.59876000  0.52848000  0.76525000  0.48 0.0888299533
H  H248  1  0.59876000  0.47152000  0.23475000  0.48 0.0888299533
H  H249  1  0.76525000  0.40124000  0.47152000  0.48 0.0888299533
H  H250  1  0.23475000  0.40124000  0.52848000  0.48 0.0888299533
H  H251  1  0.76525000  0.59876000  0.52848000  0.48 0.0888299533
H  H252  1  0.23475000  0.59876000  0.47152000  0.48 0.0888299533
H  H253  1  0.97152000  0.26525000  0.90124000  0.48 0.0888299533
H  H254  1  0.02848000  0.73475000  0.90124000  0.48 0.0888299533
H  H255  1  0.02848000  0.26525000  0.09876000  0.48 0.0888299533
H  H256  1  0.97152000  0.73475000  0.09876000  0.48 0.0888299533
H  H257  1  0.90124000  0.97152000  0.26525000  0.48 0.0888299533
H  H258  1  0.90124000  0.02848000  0.73475000  0.48 0.0888299533
H  H259  1  0.09876000  0.02848000  0.26525000  0.48 0.0888299533
H  H260  1  0.09876000  0.97152000  0.73475000  0.48 0.0888299533
H  H261  1  0.26525000  0.90124000  0.97152000  0.48 0.0888299533
H  H262  1  0.73475000  0.90124000  0.02848000  0.48 0.0888299533
H  H263  1  0.26525000  0.09876000  0.02848000  0.48 0.0888299533
H  H264  1  0.73475000  0.09876000  0.97152000  0.48 0.0888299533
H  H25  1  0.46348000  0.66973000  0.33817000  0.52 0.0684573119
H  H26  1  0.53652000  0.33027000  0.33817000  0.52 0.0684573119
H  H27  1  0.53652000  0.66973000  0.66183000  0.52 0.0684573119
H  H28  1  0.46348000  0.33027000  0.66183000  0.52 0.0684573119
H  H29  1  0.33817000  0.46348000  0.66973000  0.52 0.0684573119
H  H30  1  0.33817000  0.53652000  0.33027000  0.52 0.0684573119
H  H31  1  0.66183000  0.53652000  0.66973000  0.52 0.0684573119
H  H32  1  0.66183000  0.46348000  0.33027000  0.52 0.0684573119
H  H33  1  0.66973000  0.33817000  0.46348000  0.52 0.0684573119
H  H34  1  0.33027000  0.33817000  0.53652000  0.52 0.0684573119
H  H35  1  0.66973000  0.66183000  0.53652000  0.52 0.0684573119
H  H36  1  0.33027000  0.66183000  0.46348000  0.52 0.0684573119
H  H37  1  0.96348000  0.16973000  0.83817000  0.52 0.0684573119
H  H38  1  0.03652000  0.83027000  0.83817000  0.52 0.0684573119
H  H39  1  0.03652000  0.16973000  0.16183000  0.52 0.0684573119
H  H40  1  0.96348000  0.83027000  0.16183000  0.52 0.0684573119
H  H41  1  0.83817000  0.96348000  0.16973000  0.52 0.0684573119
H  H42  1  0.83817000  0.03652000  0.83027000  0.52 0.0684573119
H  H43  1  0.16183000  0.03652000  0.16973000  0.52 0.0684573119
H  H44  1  0.16183000  0.96348000  0.83027000  0.52 0.0684573119
H  H45  1  0.16973000  0.83817000  0.96348000  0.52 0.0684573119
H  H46  1  0.83027000  0.83817000  0.03652000  0.52 0.0684573119
H  H47  1  0.16973000  0.16183000  0.03652000  0.52 0.0684573119
H  H48  1  0.83027000  0.16183000  0.96348000  0.52 0.0684573119
H  H49  1  0.54276000  0.79355000  0.24401000  0.52 0.0684573119
H  H50  1  0.45724000  0.20645000  0.24401000  0.52 0.0684573119
H  H51  1  0.45724000  0.79355000  0.75599000  0.52 0.0684573119
H  H52  1  0.54276000  0.20645000  0.75599000  0.52 0.0684573119
H  H53  1  0.24401000  0.54276000  0.79355000  0.52 0.0684573119
H  H54  1  0.24401000  0.45724000  0.20645000  0.52 0.0684573119
H  H55  1  0.75599000  0.45724000  0.79355000  0.52 0.0684573119
H  H56  1  0.75599000  0.54276000  0.20645000  0.52 0.0684573119
H  H57  1  0.79355000  0.24401000  0.54276000  0.52 0.0684573119
H  H58  1  0.20645000  0.24401000  0.45724000  0.52 0.0684573119
H  H59  1  0.79355000  0.75599000  0.45724000  0.52 0.0684573119
H  H60  1  0.20645000  0.75599000  0.54276000  0.52 0.0684573119
H  H61  1  0.04276000  0.29355000  0.74401000  0.52 0.0684573119
H  H62  1  0.95724000  0.70645000  0.74401000  0.52 0.0684573119
H  H63  1  0.95724000  0.29355000  0.25599000  0.52 0.0684573119
H  H64  1  0.04276000  0.70645000  0.25599000  0.52 0.0684573119
H  H65  1  0.74401000  0.04276000  0.29355000  0.52 0.0684573119
H  H66  1  0.74401000  0.95724000  0.70645000  0.52 0.0684573119
H  H67  1  0.25599000  0.95724000  0.29355000  0.52 0.0684573119
H  H68  1  0.25599000  0.04276000  0.70645000  0.52 0.0684573119
H  H69  1  0.29355000  0.74401000  0.04276000  0.52 0.0684573119
H  H70  1  0.70645000  0.74401000  0.95724000  0.52 0.0684573119
H  H71  1  0.29355000  0.25599000  0.95724000  0.52 0.0684573119
H  H72  1  0.70645000  0.25599000  0.04276000  0.52 0.0684573119
H  H73  1  0.53843000  0.85625000  0.32281000  0.52 0.0983873844
H  H74  1  0.46157000  0.14375000  0.32281000  0.52 0.0983873844
H  H75  1  0.46157000  0.85625000  0.67719000  0.52 0.0983873844
H  H76  1  0.53843000  0.14375000  0.67719000  0.52 0.0983873844
H  H77  1  0.32281000  0.53843000  0.85625000  0.52 0.0983873844
H  H78  1  0.32281000  0.46157000  0.14375000  0.52 0.0983873844
H  H79  1  0.67719000  0.46157000  0.85625000  0.52 0.0983873844
H  H80  1  0.67719000  0.53843000  0.14375000  0.52 0.0983873844
H  H81  1  0.85625000  0.32281000  0.53843000  0.52 0.0983873844
H  H82  1  0.14375000  0.32281000  0.46157000  0.52 0.0983873844
H  H83  1  0.85625000  0.67719000  0.46157000  0.52 0.0983873844
H  H84  1  0.14375000  0.67719000  0.53843000  0.52 0.0983873844
H  H85  1  0.03843000  0.35625000  0.82281000  0.52 0.0983873844
H  H86  1  0.96157000  0.64375000  0.82281000  0.52 0.0983873844
H  H87  1  0.96157000  0.35625000  0.17719000  0.52 0.0983873844
H  H88  1  0.03843000  0.64375000  0.17719000  0.52 0.0983873844
H  H89  1  0.82281000  0.03843000  0.35625000  0.52 0.0983873844
H  H90  1  0.82281000  0.96157000  0.64375000  0.52 0.0983873844
H  H91  1  0.17719000  0.96157000  0.35625000  0.52 0.0983873844
H  H92  1  0.17719000  0.03843000  0.64375000  0.52 0.0983873844
H  H93  1  0.35625000  0.82281000  0.03843000  0.52 0.0983873844
H  H94  1  0.64375000  0.82281000  0.96157000  0.52 0.0983873844
H  H95  1  0.35625000  0.17719000  0.96157000  0.52 0.0983873844
H  H96  1  0.64375000  0.17719000  0.03843000  0.52 0.0983873844
H  H97  1  0.49663000  0.82569000  0.40930000  0.52 0.0888299533
H  H98  1  0.50337000  0.17431000  0.40930000  0.52 0.0888299533
H  H99  1  0.50337000  0.82569000  0.59070000  0.52 0.0888299533
H  H100  1  0.49663000  0.17431000  0.59070000  0.52 0.0888299533
H  H101  1  0.40930000  0.49663000  0.82569000  0.52 0.0888299533
H  H102  1  0.40930000  0.50337000  0.17431000  0.52 0.0888299533
H  H103  1  0.59070000  0.50337000  0.82569000  0.52 0.0888299533
H  H104  1  0.59070000  0.49663000  0.17431000  0.52 0.0888299533
H  H105  1  0.82569000  0.40930000  0.49663000  0.52 0.0888299533
H  H106  1  0.17431000  0.40930000  0.50337000  0.52 0.0888299533
H  H107  1  0.82569000  0.59070000  0.50337000  0.52 0.0888299533
H  H108  1  0.17431000  0.59070000  0.49663000  0.52 0.0888299533
H  H109  1  0.99663000  0.32570000  0.90930000  0.52 0.0888299533
H  H110  1  0.00337000  0.67431000  0.90930000  0.52 0.0888299533
H  H111  1  0.00337000  0.32570000  0.09070000  0.52 0.0888299533
H  H112  1  0.99663000  0.67431000  0.09070000  0.52 0.0888299533
H  H113  1  0.90930000  0.99663000  0.32570000  0.52 0.0888299533
H  H114  1  0.90930000  0.00337000  0.67431000  0.52 0.0888299533
H  H115  1  0.09070000  0.00337000  0.32570000  0.52 0.0888299533
H  H116  1  0.09070000  0.99663000  0.67431000  0.52 0.0888299533
H  H117  1  0.32570000  0.90930000  0.99663000  0.52 0.0888299533
H  H118  1  0.67431000  0.90930000  0.00337000  0.52 0.0888299533
H  H119  1  0.32570000  0.09070000  0.00337000  0.52 0.0888299533
H  H120  1  0.67431000  0.09070000  0.99663000  0.52 0.0888299533
H  H121  1  0.45916000  0.73243000  0.41698000  0.52 0.0888299533
H  H122  1  0.54084000  0.26757000  0.41698000  0.52 0.0888299533
H  H123  1  0.54084000  0.73243000  0.58302000  0.52 0.0888299533
H  H124  1  0.45916000  0.26757000  0.58302000  0.52 0.0888299533
H  H125  1  0.41698000  0.45916000  0.73243000  0.52 0.0888299533
H  H126  1  0.41698000  0.54084000  0.26757000  0.52 0.0888299533
H  H127  1  0.58302000  0.54084000  0.73243000  0.52 0.0888299533
H  H128  1  0.58302000  0.45916000  0.26757000  0.52 0.0888299533
H  H129  1  0.73243000  0.41698000  0.45916000  0.52 0.0888299533
H  H130  1  0.26757000  0.41698000  0.54084000  0.52 0.0888299533
H  H131  1  0.73243000  0.58302000  0.54084000  0.52 0.0888299533
H  H132  1  0.26757000  0.58302000  0.45916000  0.52 0.0888299533
H  H133  1  0.95916000  0.23243000  0.91698000  0.52 0.0888299533
H  H134  1  0.04084000  0.76757000  0.91698000  0.52 0.0888299533
H  H135  1  0.04084000  0.23243000  0.08302000  0.52 0.0888299533
H  H136  1  0.95916000  0.76757000  0.08302000  0.52 0.0888299533
H  H137  1  0.91698000  0.95916000  0.23243000  0.52 0.0888299533
H  H138  1  0.91698000  0.04084000  0.76757000  0.52 0.0888299533
H  H139  1  0.08302000  0.04084000  0.23243000  0.52 0.0888299533
H  H140  1  0.08302000  0.95916000  0.76757000  0.52 0.0888299533
H  H141  1  0.23243000  0.91698000  0.95916000  0.52 0.0888299533
H  H142  1  0.76757000  0.91698000  0.04084000  0.52 0.0888299533
H  H143  1  0.23243000  0.08302000  0.04084000  0.52 0.0888299533
H  H144  1  0.76757000  0.08302000  0.95916000  0.52 0.0888299533
C  C1  1  0.44770000  0.63700000  0.15110000  1.0 -0.2034792513
C  C2  1  0.55230000  0.36300000  0.15110000  1.0 -0.2034792513
C  C3  1  0.55230000  0.63700000  0.84890000  1.0 -0.2034792513
C  C4  1  0.44770000  0.36300000  0.84890000  1.0 -0.2034792513
C  C5  1  0.15110000  0.44770000  0.63700000  1.0 -0.2034792513
C  C6  1  0.15110000  0.55230000  0.36300000  1.0 -0.2034792513
C  C7  1  0.84890000  0.55230000  0.63700000  1.0 -0.2034792513
C  C8  1  0.84890000  0.44770000  0.36300000  1.0 -0.2034792513
C  C9  1  0.63700000  0.15110000  0.44770000  1.0 -0.2034792513
C  C10  1  0.36300000  0.15110000  0.55230000  1.0 -0.2034792513
C  C11  1  0.63700000  0.84890000  0.55230000  1.0 -0.2034792513
C  C12  1  0.36300000  0.84890000  0.44770000  1.0 -0.2034792513
C  C13  1  0.94770000  0.13700000  0.65110000  1.0 -0.2034792513
C  C14  1  0.05230000  0.86300000  0.65110000  1.0 -0.2034792513
C  C15  1  0.05230000  0.13700000  0.34890000  1.0 -0.2034792513
C  C16  1  0.94770000  0.86300000  0.34890000  1.0 -0.2034792513
C  C17  1  0.65110000  0.94770000  0.13700000  1.0 -0.2034792513
C  C18  1  0.65110000  0.05230000  0.86300000  1.0 -0.2034792513
C  C19  1  0.34890000  0.05230000  0.13700000  1.0 -0.2034792513
C  C20  1  0.34890000  0.94770000  0.86300000  1.0 -0.2034792513
C  C21  1  0.13700000  0.65110000  0.94770000  1.0 -0.2034792513
C  C22  1  0.86300000  0.65110000  0.05230000  1.0 -0.2034792513
C  C23  1  0.13700000  0.34890000  0.05230000  1.0 -0.2034792513
C  C24  1  0.86300000  0.34890000  0.94770000  1.0 -0.2034792513
C  C25  1  0.55150000  0.67680000  0.19500000  1.0 -0.079888308
C  C26  1  0.44850000  0.32320000  0.19500000  1.0 -0.079888308
C  C27  1  0.44850000  0.67680000  0.80500000  1.0 -0.079888308
C  C28  1  0.55150000  0.32320000  0.80500000  1.0 -0.079888308
C  C29  1  0.19500000  0.55150000  0.67680000  1.0 -0.079888308
C  C30  1  0.19500000  0.44850000  0.32320000  1.0 -0.079888308
C  C31  1  0.80500000  0.44850000  0.67680000  1.0 -0.079888308
C  C32  1  0.80500000  0.55150000  0.32320000  1.0 -0.079888308
C  C33  1  0.67680000  0.19500000  0.55150000  1.0 -0.079888308
C  C34  1  0.32320000  0.19500000  0.44850000  1.0 -0.079888308
C  C35  1  0.67680000  0.80500000  0.44850000  1.0 -0.079888308
C  C36  1  0.32320000  0.80500000  0.55150000  1.0 -0.079888308
C  C37  1  0.05150000  0.17680000  0.69500000  1.0 -0.079888308
C  C38  1  0.94850000  0.82320000  0.69500000  1.0 -0.079888308
C  C39  1  0.94850000  0.17680000  0.30500000  1.0 -0.079888308
C  C40  1  0.05150000  0.82320000  0.30500000  1.0 -0.079888308
C  C41  1  0.69500000  0.05150000  0.17680000  1.0 -0.079888308
C  C42  1  0.69500000  0.94850000  0.82320000  1.0 -0.079888308
C  C43  1  0.30500000  0.94850000  0.17680000  1.0 -0.079888308
C  C44  1  0.30500000  0.05150000  0.82320000  1.0 -0.079888308
C  C45  1  0.17680000  0.69500000  0.05150000  1.0 -0.079888308
C  C46  1  0.82320000  0.69500000  0.94850000  1.0 -0.079888308
C  C47  1  0.17680000  0.30500000  0.94850000  1.0 -0.079888308
C  C48  1  0.82320000  0.30500000  0.05150000  1.0 -0.079888308
C  C49  1  0.49770000  0.57490000  0.07740000  1.0 0.5443307027
C  C50  1  0.50230000  0.42510000  0.07740000  1.0 0.5443307027
C  C51  1  0.50230000  0.57490000  0.92260000  1.0 0.5443307027
C  C52  1  0.49770000  0.42510000  0.92260000  1.0 0.5443307027
C  C53  1  0.07740000  0.49770000  0.57490000  1.0 0.5443307027
C  C54  1  0.07740000  0.50230000  0.42510000  1.0 0.5443307027
C  C55  1  0.92260000  0.50230000  0.57490000  1.0 0.5443307027
C  C56  1  0.92260000  0.49770000  0.42510000  1.0 0.5443307027
C  C57  1  0.57490000  0.07740000  0.49770000  1.0 0.5443307027
C  C58  1  0.42510000  0.07740000  0.50230000  1.0 0.5443307027
C  C59  1  0.57490000  0.92260000  0.50230000  1.0 0.5443307027
C  C60  1  0.42510000  0.92260000  0.49770000  1.0 0.5443307027
C  C61  1  0.99770000  0.07490000  0.57740000  1.0 0.5443307027
C  C62  1  0.00230000  0.92510000  0.57740000  1.0 0.5443307027
C  C63  1  0.00230000  0.07490000  0.42260000  1.0 0.5443307027
C  C64  1  0.99770000  0.92510000  0.42260000  1.0 0.5443307027
C  C65  1  0.57740000  0.99770000  0.07490000  1.0 0.5443307027
C  C66  1  0.57740000  0.00230000  0.92510000  1.0 0.5443307027
C  C67  1  0.42260000  0.00230000  0.07490000  1.0 0.5443307027
C  C68  1  0.42260000  0.99770000  0.92510000  1.0 0.5443307027
C  C69  1  0.07490000  0.57740000  0.99770000  1.0 0.5443307027
C  C70  1  0.92510000  0.57740000  0.00230000  1.0 0.5443307027
C  C71  1  0.07490000  0.42260000  0.00230000  1.0 0.5443307027
C  C72  1  0.92510000  0.42260000  0.99770000  1.0 0.5443307027
C  C73  1  0.49900000  0.61710000  0.12850000  1.0 -0.0054658963
C  C74  1  0.50100000  0.38290000  0.12850000  1.0 -0.0054658963
C  C75  1  0.50100000  0.61710000  0.87150000  1.0 -0.0054658963
C  C76  1  0.49900000  0.38290000  0.87150000  1.0 -0.0054658963
C  C77  1  0.12850000  0.49900000  0.61710000  1.0 -0.0054658963
C  C78  1  0.12850000  0.50100000  0.38290000  1.0 -0.0054658963
C  C79  1  0.87150000  0.50100000  0.61710000  1.0 -0.0054658963
C  C80  1  0.87150000  0.49900000  0.38290000  1.0 -0.0054658963
C  C81  1  0.61710000  0.12850000  0.49900000  1.0 -0.0054658963
C  C82  1  0.38290000  0.12850000  0.50100000  1.0 -0.0054658963
C  C83  1  0.61710000  0.87150000  0.50100000  1.0 -0.0054658963
C  C84  1  0.38290000  0.87150000  0.49900000  1.0 -0.0054658963
C  C85  1  0.99900000  0.11710000  0.62850000  1.0 -0.0023914275
C  C86  1  0.00100000  0.88290000  0.62850000  1.0 -0.0054658963
C  C87  1  0.00100000  0.11710000  0.37150000  1.0 -0.0054658963
C  C88  1  0.99900000  0.88290000  0.37150000  1.0 -0.0054658963
C  C89  1  0.62850000  0.99900000  0.11710000  1.0 -0.0054658963
C  C90  1  0.62850000  0.00100000  0.88290000  1.0 -0.0054658963
C  C91  1  0.37150000  0.00100000  0.11710000  1.0 -0.0054658963
C  C92  1  0.37150000  0.99900000  0.88290000  1.0 -0.0054658963
C  C93  1  0.11710000  0.62850000  0.99900000  1.0 -0.0054658963
C  C94  1  0.88290000  0.62850000  0.00100000  1.0 -0.0054658963
C  C95  1  0.11710000  0.37150000  0.00100000  1.0 -0.0054658963
C  C96  1  0.88290000  0.37150000  0.99900000  1.0 -0.0054658963
C  C97  1  0.44750000  0.67570000  0.19730000  1.0 -0.1503310537
C  C98  1  0.55250000  0.32430000  0.19730000  1.0 -0.1503310537
C  C99  1  0.55250000  0.67570000  0.80270000  1.0 -0.1503310537
C  C100  1  0.44750000  0.32430000  0.80270000  1.0 -0.1503310537
C  C101  1  0.19730000  0.44750000  0.67570000  1.0 -0.1503310537
C  C102  1  0.19730000  0.55250000  0.32430000  1.0 -0.1503310537
C  C103  1  0.80270000  0.55250000  0.67570000  1.0 -0.1503310537
C  C104  1  0.80270000  0.44750000  0.32430000  1.0 -0.1503310537
C  C105  1  0.67570000  0.19730000  0.44750000  1.0 -0.1503310537
C  C106  1  0.32430000  0.19730000  0.55250000  1.0 -0.1503310537
C  C107  1  0.67570000  0.80270000  0.55250000  1.0 -0.1503310537
C  C108  1  0.32430000  0.80270000  0.44750000  1.0 -0.1503310537
C  C109  1  0.94750000  0.17570000  0.69730000  1.0 -0.1503310537
C  C110  1  0.05250000  0.82430000  0.69730000  1.0 -0.1503310537
C  C111  1  0.05250000  0.17570000  0.30270000  1.0 -0.1503310537
C  C112  1  0.94750000  0.82430000  0.30270000  1.0 -0.1503310537
C  C113  1  0.69730000  0.94750000  0.17570000  1.0 -0.1503310537
C  C114  1  0.69730000  0.05250000  0.82430000  1.0 -0.1503310537
C  C115  1  0.30270000  0.05250000  0.17570000  1.0 -0.1503310537
C  C116  1  0.30270000  0.94750000  0.82430000  1.0 -0.1503310537
C  C117  1  0.17570000  0.69730000  0.94750000  1.0 -0.1503310537
C  C118  1  0.82430000  0.69730000  0.05250000  1.0 -0.1503310537
C  C119  1  0.17570000  0.30270000  0.05250000  1.0 -0.1503310537
C  C120  1  0.82430000  0.30270000  0.94750000  1.0 -0.1503310537
C  C121  1  0.38880000  0.69870000  0.21720000  1.0 0.3990786388
C  C122  1  0.61120000  0.30130000  0.21720000  1.0 0.3990786388
C  C123  1  0.61120000  0.69870000  0.78280000  1.0 0.3990786388
C  C124  1  0.38880000  0.30130000  0.78280000  1.0 0.3990786388
C  C125  1  0.21720000  0.38880000  0.69870000  1.0 0.3990786388
C  C126  1  0.21720000  0.61120000  0.30130000  1.0 0.3990786388
C  C127  1  0.78280000  0.61120000  0.69870000  1.0 0.3990786388
C  C128  1  0.78280000  0.38880000  0.30130000  1.0 0.3990786388
C  C129  1  0.69870000  0.21720000  0.38880000  1.0 0.3990786388
C  C130  1  0.30130000  0.21720000  0.61120000  1.0 0.3990786388
C  C131  1  0.69870000  0.78280000  0.61120000  1.0 0.3990786388
C  C132  1  0.30130000  0.78280000  0.38880000  1.0 0.3990786388
C  C133  1  0.88880000  0.19870000  0.71720000  1.0 0.3990786388
C  C134  1  0.11120000  0.80130000  0.71720000  1.0 0.3990786388
C  C135  1  0.11120000  0.19870000  0.28280000  1.0 0.3990786388
C  C136  1  0.88880000  0.80130000  0.28280000  1.0 0.3990786388
C  C137  1  0.71720000  0.88880000  0.19870000  1.0 0.3990786388
C  C138  1  0.71720000  0.11120000  0.80130000  1.0 0.3990786388
C  C139  1  0.28280000  0.11120000  0.19870000  1.0 0.3990786388
C  C140  1  0.28280000  0.88880000  0.80130000  1.0 0.3990786388
C  C141  1  0.19870000  0.71720000  0.88880000  1.0 0.3990786388
C  C142  1  0.80130000  0.71720000  0.11120000  1.0 0.3990786388
C  C143  1  0.19870000  0.28280000  0.11120000  1.0 0.3990786388
C  C144  1  0.80130000  0.28280000  0.88880000  1.0 0.3990786388
C  C145  1  0.49940000  0.69670000  0.22010000  1.0 0.0025143399
C  C146  1  0.50060000  0.30330000  0.22010000  1.0 0.0025143399
C  C147  1  0.50060000  0.69670000  0.77990000  1.0 0.0025143399
C  C148  1  0.49940000  0.30330000  0.77990000  1.0 0.0025143399
C  C149  1  0.22010000  0.49940000  0.69670000  1.0 0.0025143399
C  C150  1  0.22010000  0.50060000  0.30330000  1.0 0.0025143399
C  C151  1  0.77990000  0.50060000  0.69670000  1.0 0.0025143399
C  C152  1  0.77990000  0.49940000  0.30330000  1.0 0.0025143399
C  C153  1  0.69670000  0.22010000  0.49940000  1.0 0.0025143399
C  C154  1  0.30330000  0.22010000  0.50060000  1.0 0.0025143399
C  C155  1  0.69670000  0.77990000  0.50060000  1.0 0.0025143399
C  C156  1  0.30330000  0.77990000  0.49940000  1.0 0.0025143399
C  C157  1  0.99940000  0.19670000  0.72010000  1.0 0.0025143399
C  C158  1  0.00060000  0.80330000  0.72010000  1.0 0.0025143399
C  C159  1  0.00060000  0.19670000  0.27990000  1.0 0.0025143399
C  C160  1  0.99940000  0.80330000  0.27990000  1.0 0.0025143399
C  C161  1  0.72010000  0.99940000  0.19670000  1.0 0.0025143399
C  C162  1  0.72010000  0.00060000  0.80330000  1.0 0.0025143399
C  C163  1  0.27990000  0.00060000  0.19670000  1.0 0.0025143399
C  C164  1  0.27990000  0.99940000  0.80330000  1.0 0.0025143399
C  C165  1  0.19670000  0.72010000  0.99940000  1.0 0.0025143399
C  C166  1  0.80330000  0.72010000  0.00060000  1.0 0.0025143399
C  C167  1  0.19670000  0.27990000  0.00060000  1.0 0.0025143399
C  C168  1  0.80330000  0.27990000  0.99940000  1.0 0.0025143399
C  C505  1  0.55040000  0.63870000  0.15160000  1.0 -0.2058899102
C  C506  1  0.44960000  0.36130000  0.15160000  1.0 -0.2058899102
C  C507  1  0.44960000  0.63870000  0.84840000  1.0 -0.2058899102
C  C508  1  0.55040000  0.36130000  0.84840000  1.0 -0.2058899102
C  C509  1  0.15160000  0.55040000  0.63870000  1.0 -0.2058899102
C  C510  1  0.15160000  0.44960000  0.36130000  1.0 -0.2058899102
C  C511  1  0.84840000  0.44960000  0.63870000  1.0 -0.2058899102
C  C512  1  0.84840000  0.55040000  0.36130000  1.0 -0.2058899102
C  C513  1  0.63870000  0.15160000  0.55040000  1.0 -0.2058899102
C  C514  1  0.36130000  0.15160000  0.44960000  1.0 -0.2058899102
C  C515  1  0.63870000  0.84840000  0.44960000  1.0 -0.2058899102
C  C516  1  0.36130000  0.84840000  0.55040000  1.0 -0.2058899102
C  C517  1  0.05040000  0.13870000  0.65160000  1.0 -0.2058899102
C  C518  1  0.94960000  0.86130000  0.65160000  1.0 -0.2058899102
C  C519  1  0.94960000  0.13870000  0.34840000  1.0 -0.2058899102
C  C520  1  0.05040000  0.86130000  0.34840000  1.0 -0.2058899102
C  C521  1  0.65160000  0.05040000  0.13870000  1.0 -0.2058899102
C  C522  1  0.65160000  0.94960000  0.86130000  1.0 -0.2058899102
C  C523  1  0.34840000  0.94960000  0.13870000  1.0 -0.2058899102
C  C524  1  0.34840000  0.05040000  0.86130000  1.0 -0.2058899102
C  C525  1  0.13870000  0.65160000  0.05040000  1.0 -0.2058899102
C  C526  1  0.86130000  0.65160000  0.94960000  1.0 -0.2058899102
C  C527  1  0.13870000  0.34840000  0.94960000  1.0 -0.2058899102
C  C528  1  0.86130000  0.34840000  0.05040000  1.0 -0.2058899102
C  C481  1  0.60700000  0.67400000  0.23000000  0.094 0.2989255279
C  C482  1  0.39300000  0.32600000  0.23000000  0.094 0.2989255279
C  C483  1  0.39300000  0.67400000  0.77000000  0.094 0.2989255279
C  C484  1  0.60700000  0.32600000  0.77000000  0.094 0.2989255279
C  C485  1  0.23000000  0.60700000  0.67400000  0.094 0.2989255279
C  C486  1  0.23000000  0.39300000  0.32600000  0.094 0.2989255279
C  C487  1  0.77000000  0.39300000  0.67400000  0.094 0.2989255279
C  C488  1  0.77000000  0.60700000  0.32600000  0.094 0.2989255279
C  C489  1  0.67400000  0.23000000  0.60700000  0.094 0.2989255279
C  C490  1  0.32600000  0.23000000  0.39300000  0.094 0.2989255279
C  C491  1  0.67400000  0.77000000  0.39300000  0.094 0.2989255279
C  C492  1  0.32600000  0.77000000  0.60700000  0.094 0.2989255279
C  C493  1  0.10700000  0.17400000  0.73000000  0.094 0.2989255279
C  C494  1  0.89300000  0.82600000  0.73000000  0.094 0.2989255279
C  C495  1  0.89300000  0.17400000  0.27000000  0.094 0.2989255279
C  C496  1  0.10700000  0.82600000  0.27000000  0.094 0.2989255279
C  C497  1  0.73000000  0.10700000  0.17400000  0.094 0.2989255279
C  C498  1  0.73000000  0.89300000  0.82600000  0.094 0.2989255279
C  C499  1  0.27000000  0.89300000  0.17400000  0.094 0.2989255279
C  C500  1  0.27000000  0.10700000  0.82600000  0.094 0.2989255279
C  C501  1  0.17400000  0.73000000  0.10700000  0.094 0.2989255279
C  C502  1  0.82600000  0.73000000  0.89300000  0.094 0.2989255279
C  C503  1  0.17400000  0.27000000  0.89300000  0.094 0.2989255279
C  C504  1  0.82600000  0.27000000  0.10700000  0.094 0.2989255279
C  C169  1  0.47860000  0.70740000  0.33510000  0.52 -0.0698130268
C  C170  1  0.52140000  0.29260000  0.33510000  0.52 -0.0698130268
C  C171  1  0.52140000  0.70740000  0.66490000  0.52 -0.0698130268
C  C172  1  0.47860000  0.29260000  0.66490000  0.52 -0.0698130268
C  C173  1  0.33510000  0.47860000  0.70740000  0.52 -0.0698130268
C  C174  1  0.33510000  0.52140000  0.29260000  0.52 -0.0698130268
C  C175  1  0.66490000  0.52140000  0.70740000  0.52 -0.0698130268
C  C176  1  0.66490000  0.47860000  0.29260000  0.52 -0.0698130268
C  C177  1  0.70740000  0.33510000  0.47860000  0.52 -0.0698130268
C  C178  1  0.29260000  0.33510000  0.52140000  0.52 -0.0698130268
C  C179  1  0.70740000  0.66490000  0.52140000  0.52 -0.0698130268
C  C180  1  0.29260000  0.66490000  0.47860000  0.52 -0.0698130268
C  C181  1  0.97860000  0.20740000  0.83510000  0.52 -0.0698130268
C  C182  1  0.02140000  0.79260000  0.83510000  0.52 -0.0698130268
C  C183  1  0.02140000  0.20740000  0.16490000  0.52 -0.0698130268
C  C184  1  0.97860000  0.79260000  0.16490000  0.52 -0.0698130268
C  C185  1  0.83510000  0.97860000  0.20740000  0.52 -0.0698130268
C  C186  1  0.83510000  0.02140000  0.79260000  0.52 -0.0698130268
C  C187  1  0.16490000  0.02140000  0.20740000  0.52 -0.0698130268
C  C188  1  0.16490000  0.97860000  0.79260000  0.52 -0.0698130268
C  C189  1  0.20740000  0.83510000  0.97860000  0.52 -0.0698130268
C  C190  1  0.79260000  0.83510000  0.02140000  0.52 -0.0698130268
C  C191  1  0.20740000  0.16490000  0.02140000  0.52 -0.0698130268
C  C192  1  0.79260000  0.16490000  0.97860000  0.52 -0.0698130268
C  C193  1  0.50350000  0.72560000  0.28350000  0.52 0.0188166646
C  C194  1  0.49650000  0.27440000  0.28350000  0.52 0.0188166646
C  C195  1  0.49650000  0.72560000  0.71650000  0.52 0.0188166646
C  C196  1  0.50350000  0.27440000  0.71650000  0.52 0.0188166646
C  C197  1  0.28350000  0.50350000  0.72560000  0.52 0.0188166646
C  C198  1  0.28350000  0.49650000  0.27440000  0.52 0.0188166646
C  C199  1  0.71650000  0.49650000  0.72560000  0.52 0.0188166646
C  C200  1  0.71650000  0.50350000  0.27440000  0.52 0.0188166646
C  C201  1  0.72560000  0.28350000  0.50350000  0.52 0.0188166646
C  C202  1  0.27440000  0.28350000  0.49650000  0.52 0.0188166646
C  C203  1  0.72560000  0.71650000  0.49650000  0.52 0.0188166646
C  C204  1  0.27440000  0.71650000  0.50350000  0.52 0.0188166646
C  C205  1  0.00350000  0.22560000  0.78350000  0.52 0.0188166646
C  C206  1  0.99650000  0.77440000  0.78350000  0.52 0.0188166646
C  C207  1  0.99650000  0.22560000  0.21650000  0.52 0.0188166646
C  C208  1  0.00350000  0.77440000  0.21650000  0.52 0.0188166646
C  C209  1  0.78350000  0.00350000  0.22560000  0.52 0.0188166646
C  C210  1  0.78350000  0.99650000  0.77440000  0.52 0.0188166646
C  C211  1  0.21650000  0.99650000  0.22560000  0.52 0.0188166646
C  C212  1  0.21650000  0.00350000  0.77440000  0.52 0.0188166646
C  C213  1  0.22560000  0.78350000  0.00350000  0.52 0.0188166646
C  C214  1  0.77440000  0.78350000  0.99650000  0.52 0.0188166646
C  C215  1  0.22560000  0.21650000  0.99650000  0.52 0.0188166646
C  C216  1  0.77440000  0.21650000  0.00350000  0.52 0.0188166646
C  C217  1  0.52590000  0.78120000  0.27890000  0.52 -0.0161771113
C  C218  1  0.47410000  0.21880000  0.27890000  0.52 -0.0161771113
C  C219  1  0.47410000  0.78120000  0.72110000  0.52 -0.0161771113
C  C220  1  0.52590000  0.21880000  0.72110000  0.52 -0.0161771113
C  C221  1  0.27890000  0.52590000  0.78120000  0.52 -0.0161771113
C  C222  1  0.27890000  0.47410000  0.21880000  0.52 -0.0161771113
C  C223  1  0.72110000  0.47410000  0.78120000  0.52 -0.0161771113
C  C224  1  0.72110000  0.52590000  0.21880000  0.52 -0.0161771113
C  C225  1  0.78120000  0.27890000  0.52590000  0.52 -0.0161771113
C  C226  1  0.21880000  0.27890000  0.47410000  0.52 -0.0161771113
C  C227  1  0.78120000  0.72110000  0.47410000  0.52 -0.0161771113
C  C228  1  0.21880000  0.72110000  0.52590000  0.52 -0.0161771113
C  C229  1  0.02590000  0.28120000  0.77890000  0.52 -0.0161771113
C  C230  1  0.97410000  0.71880000  0.77890000  0.52 -0.0161771113
C  C231  1  0.97410000  0.28120000  0.22110000  0.52 -0.0161771113
C  C232  1  0.02590000  0.71880000  0.22110000  0.52 -0.0161771113
C  C233  1  0.77890000  0.02590000  0.28120000  0.52 -0.0161771113
C  C234  1  0.77890000  0.97410000  0.71880000  0.52 -0.0161771113
C  C235  1  0.22110000  0.97410000  0.28120000  0.52 -0.0161771113
C  C236  1  0.22110000  0.02590000  0.71880000  0.52 -0.0161771113
C  C237  1  0.28120000  0.77890000  0.02590000  0.52 -0.0161771113
C  C238  1  0.71880000  0.77890000  0.97410000  0.52 -0.0161771113
C  C239  1  0.28120000  0.22110000  0.97410000  0.52 -0.0161771113
C  C240  1  0.71880000  0.22110000  0.02590000  0.52 -0.0161771113
C  C241  1  0.52330000  0.81860000  0.32590000  0.52 -0.0054658963
C  C242  1  0.47670000  0.18140000  0.32590000  0.52 -0.0054658963
C  C243  1  0.47670000  0.81860000  0.67410000  0.52 -0.0054658963
C  C244  1  0.52330000  0.18140000  0.67410000  0.52 -0.0054658963
C  C245  1  0.32590000  0.52330000  0.81860000  0.52 -0.0054658963
C  C246  1  0.32590000  0.47670000  0.18140000  0.52 -0.0054658963
C  C247  1  0.67410000  0.47670000  0.81860000  0.52 -0.0054658963
C  C248  1  0.67410000  0.52330000  0.18140000  0.52 -0.0054658963
C  C249  1  0.81860000  0.32590000  0.52330000  0.52 -0.0054658963
C  C250  1  0.18140000  0.32590000  0.47670000  0.52 -0.0054658963
C  C251  1  0.81860000  0.67410000  0.47670000  0.52 -0.0023914275
C  C252  1  0.18140000  0.67410000  0.52330000  0.52 -0.0054658963
C  C253  1  0.02330000  0.31860000  0.82590000  0.52 -0.0054658963
C  C254  1  0.97670000  0.68140000  0.82590000  0.52 -0.0054658963
C  C255  1  0.97670000  0.31860000  0.17410000  0.52 -0.0023914275
C  C256  1  0.02330000  0.68140000  0.17410000  0.52 -0.0054658963
C  C257  1  0.82590000  0.02330000  0.31860000  0.52 -0.0054658963
C  C258  1  0.82590000  0.97670000  0.68140000  0.52 -0.0023914275
C  C259  1  0.17410000  0.97670000  0.31860000  0.52 -0.0054658963
C  C260  1  0.17410000  0.02330000  0.68140000  0.52 -0.0054658963
C  C261  1  0.31860000  0.82590000  0.02330000  0.52 -0.0054658963
C  C262  1  0.68140000  0.82590000  0.97670000  0.52 -0.0054658963
C  C263  1  0.31860000  0.17410000  0.97670000  0.52 -0.0054658963
C  C264  1  0.68140000  0.17410000  0.02330000  0.52 -0.0023914275
C  C265  1  0.49840000  0.80040000  0.37750000  0.52 -0.0903786847
C  C266  1  0.50160000  0.19960000  0.37750000  0.52 -0.0903786847
C  C267  1  0.50160000  0.80040000  0.62250000  0.52 -0.0903786847
C  C268  1  0.49840000  0.19960000  0.62250000  0.52 -0.0903786847
C  C269  1  0.37750000  0.49840000  0.80040000  0.52 -0.0903786847
C  C270  1  0.37750000  0.50160000  0.19960000  0.52 -0.0903786847
C  C271  1  0.62250000  0.50160000  0.80040000  0.52 -0.0903786847
C  C272  1  0.62250000  0.49840000  0.19960000  0.52 -0.0903786847
C  C273  1  0.80040000  0.37750000  0.49840000  0.52 -0.0903786847
C  C274  1  0.19960000  0.37750000  0.50160000  0.52 -0.0903786847
C  C275  1  0.80040000  0.62250000  0.50160000  0.52 -0.0903786847
C  C276  1  0.19960000  0.62250000  0.49840000  0.52 -0.0903786847
C  C277  1  0.99840000  0.30040000  0.87750000  0.52 -0.0903786847
C  C278  1  0.00160000  0.69960000  0.87750000  0.52 -0.0903786847
C  C279  1  0.00160000  0.30040000  0.12250000  0.52 -0.0903786847
C  C280  1  0.99840000  0.69960000  0.12250000  0.52 -0.0903786847
C  C281  1  0.87750000  0.99840000  0.30040000  0.52 -0.0903786847
C  C282  1  0.87750000  0.00160000  0.69960000  0.52 -0.0903786847
C  C283  1  0.12250000  0.00160000  0.30040000  0.52 -0.0903786847
C  C284  1  0.12250000  0.99840000  0.69960000  0.52 -0.0903786847
C  C285  1  0.30040000  0.87750000  0.99840000  0.52 -0.0903786847
C  C286  1  0.69960000  0.87750000  0.00160000  0.52 -0.0903786847
C  C287  1  0.30040000  0.12250000  0.00160000  0.52 -0.0903786847
C  C288  1  0.69960000  0.12250000  0.99840000  0.52 -0.0903786847
C  C289  1  0.47600000  0.74480000  0.38210000  0.52 -0.1193287656
C  C290  1  0.52400000  0.25520000  0.38210000  0.52 -0.1193287656
C  C291  1  0.52400000  0.74480000  0.61790000  0.52 -0.1193287656
C  C292  1  0.47600000  0.25520000  0.61790000  0.52 -0.1193287656
C  C293  1  0.38210000  0.47600000  0.74480000  0.52 -0.1193287656
C  C294  1  0.38210000  0.52400000  0.25520000  0.52 -0.1193287656
C  C295  1  0.61790000  0.52400000  0.74480000  0.52 -0.1193287656
C  C296  1  0.61790000  0.47600000  0.25520000  0.52 -0.1193287656
C  C297  1  0.74480000  0.38210000  0.47600000  0.52 -0.1193287656
C  C298  1  0.25520000  0.38210000  0.52400000  0.52 -0.1193287656
C  C299  1  0.74480000  0.61790000  0.52400000  0.52 -0.1193287656
C  C300  1  0.25520000  0.61790000  0.47600000  0.52 -0.1193287656
C  C301  1  0.97600000  0.24480000  0.88210000  0.52 -0.1193287656
C  C302  1  0.02400000  0.75520000  0.88210000  0.52 -0.1193287656
C  C303  1  0.02400000  0.24480000  0.11790000  0.52 -0.1193287656
C  C304  1  0.97600000  0.75520000  0.11790000  0.52 -0.1193287656
C  C305  1  0.88210000  0.97600000  0.24480000  0.52 -0.1193287656
C  C306  1  0.88210000  0.02400000  0.75520000  0.52 -0.1193287656
C  C307  1  0.11790000  0.02400000  0.24480000  0.52 -0.1193287656
C  C308  1  0.11790000  0.97600000  0.75520000  0.52 -0.1193287656
C  C309  1  0.24480000  0.88210000  0.97600000  0.52 -0.1193287656
C  C310  1  0.75520000  0.88210000  0.02400000  0.52 -0.1193287656
C  C311  1  0.24480000  0.11790000  0.02400000  0.52 -0.1193287656
C  C312  1  0.75520000  0.11790000  0.97600000  0.52 -0.1193287656
C  C457  1  0.60970000  0.70000000  0.21450000  0.906 0.2816237003
C  C458  1  0.39030000  0.30000000  0.21450000  0.906 0.2816237003
C  C459  1  0.39030000  0.70000000  0.78550000  0.906 0.2816237003
C  C460  1  0.60970000  0.30000000  0.78550000  0.906 0.2816237003
C  C461  1  0.21450000  0.60970000  0.70000000  0.906 0.2816237003
C  C462  1  0.21450000  0.39030000  0.30000000  0.906 0.2816237003
C  C463  1  0.78550000  0.39030000  0.70000000  0.906 0.2816237003
C  C464  1  0.78550000  0.60970000  0.30000000  0.906 0.2816237003
C  C465  1  0.70000000  0.21450000  0.60970000  0.906 0.2816237003
C  C466  1  0.30000000  0.21450000  0.39030000  0.906 0.2816237003
C  C467  1  0.70000000  0.78550000  0.39030000  0.906 0.2816237003
C  C468  1  0.30000000  0.78550000  0.60970000  0.906 0.2816237003
C  C469  1  0.10970000  0.20000000  0.71450000  0.906 0.2816237003
C  C470  1  0.89030000  0.80000000  0.71450000  0.906 0.2816237003
C  C471  1  0.89030000  0.20000000  0.28550000  0.906 0.2816237003
C  C472  1  0.10970000  0.80000000  0.28550000  0.906 0.2816237003
C  C473  1  0.71450000  0.10970000  0.20000000  0.906 0.2816237003
C  C474  1  0.71450000  0.89030000  0.80000000  0.906 0.2816237003
C  C475  1  0.28550000  0.89030000  0.20000000  0.906 0.2816237003
C  C476  1  0.28550000  0.10970000  0.80000000  0.906 0.2816237003
C  C477  1  0.20000000  0.71450000  0.10970000  0.906 0.2816237003
C  C478  1  0.80000000  0.71450000  0.89030000  0.906 0.2816237003
C  C479  1  0.20000000  0.28550000  0.89030000  0.906 0.2816237003
C  C480  1  0.80000000  0.28550000  0.10970000  0.906 0.2816237003
C  C313  1  0.48160000  0.73270000  0.32030000  0.48 -0.0023914275
C  C314  1  0.51840000  0.26730000  0.32030000  0.48 -0.0023914275
C  C315  1  0.51840000  0.73270000  0.67970000  0.48 -0.0023914275
C  C316  1  0.48160000  0.26730000  0.67970000  0.48 -0.0023914275
C  C317  1  0.32030000  0.48160000  0.73270000  0.48 -0.0023914275
C  C318  1  0.32030000  0.51840000  0.26730000  0.48 -0.0023914275
C  C319  1  0.67970000  0.51840000  0.73270000  0.48 -0.0023914275
C  C320  1  0.67970000  0.48160000  0.26730000  0.48 -0.0023914275
C  C321  1  0.73270000  0.32030000  0.48160000  0.48 -0.0023914275
C  C322  1  0.26730000  0.32030000  0.51840000  0.48 -0.0023914275
C  C323  1  0.73270000  0.67970000  0.51840000  0.48 -0.0023914275
C  C324  1  0.26730000  0.67970000  0.48160000  0.48 -0.0023914275
C  C325  1  0.98160000  0.23270000  0.82030000  0.48 -0.0023914275
C  C326  1  0.01840000  0.76730000  0.82030000  0.48 -0.0023914275
C  C327  1  0.01840000  0.23270000  0.17970000  0.48 -0.0023914275
C  C328  1  0.98160000  0.76730000  0.17970000  0.48 -0.0023914275
C  C329  1  0.82030000  0.98160000  0.23270000  0.48 -0.0023914275
C  C330  1  0.82030000  0.01840000  0.76730000  0.48 -0.0023914275
C  C331  1  0.17970000  0.01840000  0.23270000  0.48 -0.0023914275
C  C332  1  0.17970000  0.98160000  0.76730000  0.48 -0.0023914275
C  C333  1  0.23270000  0.82030000  0.98160000  0.48 -0.0023914275
C  C334  1  0.76730000  0.82030000  0.01840000  0.48 -0.0023914275
C  C335  1  0.23270000  0.17970000  0.01840000  0.48 -0.0023914275
C  C336  1  0.76730000  0.17970000  0.98160000  0.48 -0.0023914275
C  C337  1  0.50390000  0.74470000  0.26570000  0.48 0.0188166646
C  C338  1  0.49610000  0.25530000  0.26570000  0.48 0.0188166646
C  C339  1  0.49610000  0.74470000  0.73430000  0.48 0.0188166646
C  C340  1  0.50390000  0.25530000  0.73430000  0.48 0.0188166646
C  C341  1  0.26570000  0.50390000  0.74470000  0.48 0.0188166646
C  C342  1  0.26570000  0.49610000  0.25530000  0.48 0.0188166646
C  C343  1  0.73430000  0.49610000  0.74470000  0.48 0.0188166646
C  C344  1  0.73430000  0.50390000  0.25530000  0.48 0.0188166646
C  C345  1  0.74470000  0.26570000  0.50390000  0.48 0.0188166646
C  C346  1  0.25530000  0.26570000  0.49610000  0.48 0.0188166646
C  C347  1  0.74470000  0.73430000  0.49610000  0.48 0.0188166646
C  C348  1  0.25530000  0.73430000  0.50390000  0.48 0.0188166646
C  C349  1  0.00390000  0.24470000  0.76570000  0.48 0.0188166646
C  C350  1  0.99610000  0.75530000  0.76570000  0.48 0.0188166646
C  C351  1  0.99610000  0.24470000  0.23430000  0.48 0.0188166646
C  C352  1  0.00390000  0.75530000  0.23430000  0.48 0.0188166646
C  C353  1  0.76570000  0.00390000  0.24470000  0.48 0.0188166646
C  C354  1  0.76570000  0.99610000  0.75530000  0.48 0.0188166646
C  C355  1  0.23430000  0.99610000  0.24470000  0.48 0.0188166646
C  C356  1  0.23430000  0.00390000  0.75530000  0.48 0.0188166646
C  C357  1  0.24470000  0.76570000  0.00390000  0.48 0.0188166646
C  C358  1  0.75530000  0.76570000  0.99610000  0.48 0.0188166646
C  C359  1  0.24470000  0.23430000  0.99610000  0.48 0.0188166646
C  C360  1  0.75530000  0.23430000  0.00390000  0.48 0.0188166646
C  C361  1  0.53120000  0.79720000  0.25520000  0.48 -0.0562466728
C  C362  1  0.46880000  0.20280000  0.25520000  0.48 -0.0562466728
C  C363  1  0.46880000  0.79720000  0.74480000  0.48 -0.0562466728
C  C364  1  0.53120000  0.20280000  0.74480000  0.48 -0.0562466728
C  C365  1  0.25520000  0.53120000  0.79720000  0.48 -0.0562466728
C  C366  1  0.25520000  0.46880000  0.20280000  0.48 -0.0562466728
C  C367  1  0.74480000  0.46880000  0.79720000  0.48 -0.0562466728
C  C368  1  0.74480000  0.53120000  0.20280000  0.48 -0.0562466728
C  C369  1  0.79720000  0.25520000  0.53120000  0.48 -0.0562466728
C  C370  1  0.20280000  0.25520000  0.46880000  0.48 -0.0562466728
C  C371  1  0.79720000  0.74480000  0.46880000  0.48 -0.0562466728
C  C372  1  0.20280000  0.74480000  0.53120000  0.48 -0.0562466728
C  C373  1  0.03120000  0.29720000  0.75520000  0.48 -0.0562466728
C  C374  1  0.96880000  0.70280000  0.75520000  0.48 -0.0562466728
C  C375  1  0.96880000  0.29720000  0.24480000  0.48 -0.0562466728
C  C376  1  0.03120000  0.70280000  0.24480000  0.48 -0.0562466728
C  C377  1  0.75520000  0.03120000  0.29720000  0.48 -0.0562466728
C  C378  1  0.75520000  0.96880000  0.70280000  0.48 -0.0562466728
C  C379  1  0.24480000  0.96880000  0.29720000  0.48 -0.0562466728
C  C380  1  0.24480000  0.03120000  0.70280000  0.48 -0.0562466728
C  C381  1  0.29720000  0.75520000  0.03120000  0.48 -0.0562466728
C  C382  1  0.70280000  0.75520000  0.96880000  0.48 -0.0562466728
C  C383  1  0.29720000  0.24480000  0.96880000  0.48 -0.0562466728
C  C384  1  0.70280000  0.24480000  0.03120000  0.48 -0.0562466728
C  C385  1  0.53620000  0.83780000  0.29930000  0.48 -0.1096192453
C  C386  1  0.46380000  0.16220000  0.29930000  0.48 -0.1096192453
C  C387  1  0.46380000  0.83780000  0.70070000  0.48 -0.1096192453
C  C388  1  0.53620000  0.16220000  0.70070000  0.48 -0.1096192453
C  C389  1  0.29930000  0.53620000  0.83780000  0.48 -0.1096192453
C  C390  1  0.29930000  0.46380000  0.16220000  0.48 -0.1096192453
C  C391  1  0.70070000  0.46380000  0.83780000  0.48 -0.1096192453
C  C392  1  0.70070000  0.53620000  0.16220000  0.48 -0.1096192453
C  C393  1  0.83780000  0.29930000  0.53620000  0.48 -0.1096192453
C  C394  1  0.16220000  0.29930000  0.46380000  0.48 -0.1096192453
C  C395  1  0.83780000  0.70070000  0.46380000  0.48 -0.1096192453
C  C396  1  0.16220000  0.70070000  0.53620000  0.48 -0.1096192453
C  C397  1  0.03620000  0.33780000  0.79930000  0.48 -0.1096192453
C  C398  1  0.96380000  0.66220000  0.79930000  0.48 -0.1096192453
C  C399  1  0.96380000  0.33780000  0.20070000  0.48 -0.1096192453
C  C400  1  0.03620000  0.66220000  0.20070000  0.48 -0.1096192453
C  C401  1  0.79930000  0.03620000  0.33780000  0.48 -0.1096192453
C  C402  1  0.79930000  0.96380000  0.66220000  0.48 -0.1096192453
C  C403  1  0.20070000  0.96380000  0.33780000  0.48 -0.1096192453
C  C404  1  0.20070000  0.03620000  0.66220000  0.48 -0.1096192453
C  C405  1  0.33780000  0.79930000  0.03620000  0.48 -0.1096192453
C  C406  1  0.66220000  0.79930000  0.96380000  0.48 -0.1096192453
C  C407  1  0.33780000  0.20070000  0.96380000  0.48 -0.1096192453
C  C408  1  0.66220000  0.20070000  0.03620000  0.48 -0.1096192453
C  C409  1  0.51390000  0.82590000  0.35390000  0.48 -0.0698130268
C  C410  1  0.48610000  0.17410000  0.35390000  0.48 -0.0698130268
C  C411  1  0.48610000  0.82590000  0.64610000  0.48 -0.0698130268
C  C412  1  0.51390000  0.17410000  0.64610000  0.48 -0.0698130268
C  C413  1  0.35390000  0.51390000  0.82590000  0.48 -0.0698130268
C  C414  1  0.35390000  0.48610000  0.17410000  0.48 -0.0698130268
C  C415  1  0.64610000  0.48610000  0.82590000  0.48 -0.0698130268
C  C416  1  0.64610000  0.51390000  0.17410000  0.48 -0.0698130268
C  C417  1  0.82590000  0.35390000  0.51390000  0.48 -0.0698130268
C  C418  1  0.17410000  0.35390000  0.48610000  0.48 -0.0698130268
C  C419  1  0.82590000  0.64610000  0.48610000  0.48 -0.0698130268
C  C420  1  0.17410000  0.64610000  0.51390000  0.48 -0.0698130268
C  C421  1  0.01390000  0.32590000  0.85390000  0.48 -0.0698130268
C  C422  1  0.98610000  0.67410000  0.85390000  0.48 -0.0698130268
C  C423  1  0.98610000  0.32590000  0.14610000  0.48 -0.0698130268
C  C424  1  0.01390000  0.67410000  0.14610000  0.48 -0.0698130268
C  C425  1  0.85390000  0.01390000  0.32590000  0.48 -0.0698130268
C  C426  1  0.85390000  0.98610000  0.67410000  0.48 -0.0698130268
C  C427  1  0.14610000  0.98610000  0.32590000  0.48 -0.0698130268
C  C428  1  0.14610000  0.01390000  0.67410000  0.48 -0.0698130268
C  C429  1  0.32590000  0.85390000  0.01390000  0.48 -0.0698130268
C  C430  1  0.67410000  0.85390000  0.98610000  0.48 -0.0698130268
C  C431  1  0.32590000  0.14610000  0.98610000  0.48 -0.0698130268
C  C432  1  0.67410000  0.14610000  0.01390000  0.48 -0.0698130268
C  C433  1  0.48660000  0.77330000  0.36430000  0.48 -0.0023914275
C  C434  1  0.51340000  0.22670000  0.36430000  0.48 -0.0023914275
C  C435  1  0.51340000  0.77330000  0.63570000  0.48 -0.0023914275
C  C436  1  0.48660000  0.22670000  0.63570000  0.48 -0.0023914275
C  C437  1  0.36430000  0.48660000  0.77330000  0.48 -0.0023914275
C  C438  1  0.36430000  0.51340000  0.22670000  0.48 -0.0023914275
C  C439  1  0.63570000  0.51340000  0.77330000  0.48 -0.0023914275
C  C440  1  0.63570000  0.48660000  0.22670000  0.48 -0.0023914275
C  C441  1  0.77330000  0.36430000  0.48660000  0.48 -0.0023914275
C  C442  1  0.22670000  0.36430000  0.51340000  0.48 -0.0023914275
C  C443  1  0.77330000  0.63570000  0.51340000  0.48 -0.0023914275
C  C444  1  0.22670000  0.63570000  0.48660000  0.48 -0.0023914275
C  C445  1  0.98660000  0.27330000  0.86430000  0.48 -0.0023914275
C  C446  1  0.01340000  0.72670000  0.86430000  0.48 -0.0023914275
C  C447  1  0.01340000  0.27330000  0.13570000  0.48 -0.0023914275
C  C448  1  0.98660000  0.72670000  0.13570000  0.48 -0.0023914275
C  C449  1  0.86430000  0.98660000  0.27330000  0.48 -0.0023914275
C  C450  1  0.86430000  0.01340000  0.72670000  0.48 -0.0023914275
C  C451  1  0.13570000  0.01340000  0.27330000  0.48 -0.0023914275
C  C452  1  0.13570000  0.98660000  0.72670000  0.48 -0.0023914275
C  C453  1  0.27330000  0.86430000  0.98660000  0.48 -0.0023914275
C  C454  1  0.72670000  0.86430000  0.01340000  0.48 -0.0023914275
C  C455  1  0.27330000  0.13570000  0.01340000  0.48 -0.0023914275
C  C456  1  0.72670000  0.13570000  0.98660000  0.48 -0.0023914275
O  O1  1  0.45000000  0.56070000  0.05970000  1.0 -0.5042074444
O  O2  1  0.55000000  0.43930000  0.05970000  1.0 -0.5042074444
O  O3  1  0.55000000  0.56070000  0.94030000  1.0 -0.5042074444
O  O4  1  0.45000000  0.43930000  0.94030000  1.0 -0.5042074444
O  O5  1  0.05970000  0.45000000  0.56070000  1.0 -0.5042074444
O  O6  1  0.05970000  0.55000000  0.43930000  1.0 -0.5042074444
O  O7  1  0.94030000  0.55000000  0.56070000  1.0 -0.5042074444
O  O8  1  0.94030000  0.45000000  0.43930000  1.0 -0.5042074444
O  O9  1  0.56070000  0.05970000  0.45000000  1.0 -0.5042074444
O  O10  1  0.43930000  0.05970000  0.55000000  1.0 -0.5042074444
O  O11  1  0.56070000  0.94030000  0.55000000  1.0 -0.5042074444
O  O12  1  0.43930000  0.94030000  0.45000000  1.0 -0.5042074444
O  O13  1  0.95000000  0.06070000  0.55970000  1.0 -0.5042074444
O  O14  1  0.05000000  0.93930000  0.55970000  1.0 -0.5042074444
O  O15  1  0.05000000  0.06070000  0.44030000  1.0 -0.5042074444
O  O16  1  0.95000000  0.93930000  0.44030000  1.0 -0.5042074444
O  O17  1  0.55970000  0.95000000  0.06070000  1.0 -0.5042074444
O  O18  1  0.55970000  0.05000000  0.93930000  1.0 -0.5042074444
O  O19  1  0.44030000  0.05000000  0.06070000  1.0 -0.5042074444
O  O20  1  0.44030000  0.95000000  0.93930000  1.0 -0.5042074444
O  O21  1  0.06070000  0.55970000  0.95000000  1.0 -0.5042074444
O  O22  1  0.93930000  0.55970000  0.05000000  1.0 -0.5042074444
O  O23  1  0.06070000  0.44030000  0.05000000  1.0 -0.5042074444
O  O24  1  0.93930000  0.44030000  0.95000000  1.0 -0.5042074444
O  O121  1  0.54520000  0.55930000  0.06070000  1.0 -0.5118978083
O  O122  1  0.45480000  0.44070000  0.06070000  1.0 -0.5118978083
O  O123  1  0.45480000  0.55930000  0.93930000  1.0 -0.5118978083
O  O124  1  0.54520000  0.44070000  0.93930000  1.0 -0.5118978083
O  O125  1  0.06070000  0.54520000  0.55930000  1.0 -0.5118978083
O  O126  1  0.06070000  0.45480000  0.44070000  1.0 -0.5118978083
O  O127  1  0.93930000  0.45480000  0.55930000  1.0 -0.5118978083
O  O128  1  0.93930000  0.54520000  0.44070000  1.0 -0.5118978083
O  O129  1  0.55930000  0.06070000  0.54520000  1.0 -0.5118978083
O  O130  1  0.44070000  0.06070000  0.45480000  1.0 -0.5118978083
O  O131  1  0.55930000  0.93930000  0.45480000  1.0 -0.5118978083
O  O132  1  0.44070000  0.93930000  0.54520000  1.0 -0.5118978083
O  O133  1  0.04520000  0.05930000  0.56070000  1.0 -0.5118978083
O  O134  1  0.95480000  0.94070000  0.56070000  1.0 -0.5118978083
O  O135  1  0.95480000  0.05930000  0.43930000  1.0 -0.5118978083
O  O136  1  0.04520000  0.94070000  0.43930000  1.0 -0.5118978083
O  O137  1  0.56070000  0.04520000  0.05930000  1.0 -0.5118978083
O  O138  1  0.56070000  0.95480000  0.94070000  1.0 -0.5118978083
O  O139  1  0.43930000  0.95480000  0.05930000  1.0 -0.5118978083
O  O140  1  0.43930000  0.04520000  0.94070000  1.0 -0.5118978083
O  O141  1  0.05930000  0.56070000  0.04520000  1.0 -0.5118978083
O  O142  1  0.94070000  0.56070000  0.95480000  1.0 -0.5118978083
O  O143  1  0.05930000  0.43930000  0.95480000  1.0 -0.5118978083
O  O144  1  0.94070000  0.43930000  0.04520000  1.0 -0.5118978083
O  O145  1  0.74860000  0.74860000  0.25140000  1.0 -0.6946113095
O  O146  1  0.25140000  0.25140000  0.25140000  1.0 -0.6946113095
O  O147  1  0.25140000  0.74860000  0.74860000  1.0 -0.6946113095
O  O148  1  0.74860000  0.25140000  0.74860000  1.0 -0.6946113095
O  O149  1  0.24860000  0.24860000  0.75140000  1.0 -0.6946113095
O  O150  1  0.75140000  0.75140000  0.75140000  1.0 -0.6946113095
O  O151  1  0.75140000  0.24860000  0.24860000  1.0 -0.6946113095
O  O152  1  0.24860000  0.75140000  0.24860000  1.0 -0.6946113095
O  O49  1  0.37600000  0.72800000  0.27100000  0.094 -0.2366678102
O  O50  1  0.62400000  0.27200000  0.27100000  0.094 -0.2366678102
O  O51  1  0.62400000  0.72800000  0.72900000  0.094 -0.2366678102
O  O52  1  0.37600000  0.27200000  0.72900000  0.094 -0.2366678102
O  O53  1  0.27100000  0.37600000  0.72800000  0.094 -0.2366678102
O  O54  1  0.27100000  0.62400000  0.27200000  0.094 -0.2366678102
O  O55  1  0.72900000  0.62400000  0.72800000  0.094 -0.2366678102
O  O56  1  0.72900000  0.37600000  0.27200000  0.094 -0.2366678102
O  O57  1  0.72800000  0.27100000  0.37600000  0.094 -0.2366678102
O  O58  1  0.27200000  0.27100000  0.62400000  0.094 -0.2366678102
O  O59  1  0.72800000  0.72900000  0.62400000  0.094 -0.2366678102
O  O60  1  0.27200000  0.72900000  0.37600000  0.094 -0.2366678102
O  O61  1  0.87600000  0.22800000  0.77100000  0.094 -0.2366678102
O  O62  1  0.12400000  0.77200000  0.77100000  0.094 -0.2366678102
O  O63  1  0.12400000  0.22800000  0.22900000  0.094 -0.2366678102
O  O64  1  0.87600000  0.77200000  0.22900000  0.094 -0.2366678102
O  O65  1  0.77100000  0.87600000  0.22800000  0.094 -0.2366678102
O  O66  1  0.77100000  0.12400000  0.77200000  0.094 -0.2366678102
O  O67  1  0.22900000  0.12400000  0.22800000  0.094 -0.2366678102
O  O68  1  0.22900000  0.87600000  0.77200000  0.094 -0.2366678102
O  O69  1  0.22800000  0.77100000  0.87600000  0.094 -0.2366678102
O  O70  1  0.77200000  0.77100000  0.12400000  0.094 -0.2366678102
O  O71  1  0.22800000  0.22900000  0.12400000  0.094 -0.2366678102
O  O72  1  0.77200000  0.22900000  0.87600000  0.094 -0.2366678102
O  O97  1  0.65000000  0.68200000  0.20100000  0.094 -0.079888308
O  O98  1  0.35000000  0.31800000  0.20100000  0.094 -0.079888308
O  O99  1  0.35000000  0.68200000  0.79900000  0.094 -0.079888308
O  O100  1  0.65000000  0.31800000  0.79900000  0.094 -0.079888308
O  O101  1  0.20100000  0.65000000  0.68200000  0.094 -0.079888308
O  O102  1  0.20100000  0.35000000  0.31800000  0.094 -0.079888308
O  O103  1  0.79900000  0.35000000  0.68200000  0.094 -0.079888308
O  O104  1  0.79900000  0.65000000  0.31800000  0.094 -0.079888308
O  O105  1  0.68200000  0.20100000  0.65000000  0.094 -0.079888308
O  O106  1  0.31800000  0.20100000  0.35000000  0.094 -0.079888308
O  O107  1  0.68200000  0.79900000  0.35000000  0.094 -0.079888308
O  O108  1  0.31800000  0.79900000  0.65000000  0.094 -0.079888308
O  O109  1  0.15000000  0.18200000  0.70100000  0.094 -0.079888308
O  O110  1  0.85000000  0.81800000  0.70100000  0.094 -0.079888308
O  O111  1  0.85000000  0.18200000  0.29900000  0.094 -0.079888308
O  O112  1  0.15000000  0.81800000  0.29900000  0.094 -0.079888308
O  O113  1  0.70100000  0.15000000  0.18200000  0.094 -0.079888308
O  O114  1  0.70100000  0.85000000  0.81800000  0.094 -0.079888308
O  O115  1  0.29900000  0.85000000  0.18200000  0.094 -0.079888308
O  O116  1  0.29900000  0.15000000  0.81800000  0.094 -0.079888308
O  O117  1  0.18200000  0.70100000  0.15000000  0.094 -0.079888308
O  O118  1  0.81800000  0.70100000  0.85000000  0.094 -0.079888308
O  O119  1  0.18200000  0.29900000  0.85000000  0.094 -0.079888308
O  O120  1  0.81800000  0.29900000  0.15000000  0.094 -0.079888308
O  O177  1  0.34000000  0.67800000  0.17200000  0.094 -0.2280011386
O  O178  1  0.66000000  0.32200000  0.17200000  0.094 -0.2280011386
O  O179  1  0.66000000  0.67800000  0.82800000  0.094 -0.2280011386
O  O180  1  0.34000000  0.32200000  0.82800000  0.094 -0.2280011386
O  O181  1  0.17200000  0.34000000  0.67800000  0.094 -0.2280011386
O  O182  1  0.17200000  0.66000000  0.32200000  0.094 -0.2280011386
O  O183  1  0.82800000  0.66000000  0.67800000  0.094 -0.2280011386
O  O184  1  0.82800000  0.34000000  0.32200000  0.094 -0.2280011386
O  O185  1  0.67800000  0.17200000  0.34000000  0.094 -0.2280011386
O  O186  1  0.32200000  0.17200000  0.66000000  0.094 -0.2280011386
O  O187  1  0.67800000  0.82800000  0.66000000  0.094 -0.2280011386
O  O188  1  0.32200000  0.82800000  0.34000000  0.094 -0.2280011386
O  O189  1  0.84000000  0.17800000  0.67200000  0.094 -0.2280011386
O  O190  1  0.16000000  0.82200000  0.67200000  0.094 -0.2280011386
O  O191  1  0.16000000  0.17800000  0.32800000  0.094 -0.2280011386
O  O192  1  0.84000000  0.82200000  0.32800000  0.094 -0.2280011386
O  O193  1  0.67200000  0.84000000  0.17800000  0.094 -0.2280011386
O  O194  1  0.67200000  0.16000000  0.82200000  0.094 -0.2280011386
O  O195  1  0.32800000  0.16000000  0.17800000  0.094 -0.2280011386
O  O196  1  0.32800000  0.84000000  0.82200000  0.094 -0.2280011386
O  O197  1  0.17800000  0.67200000  0.84000000  0.094 -0.2280011386
O  O198  1  0.82200000  0.67200000  0.16000000  0.094 -0.2280011386
O  O199  1  0.17800000  0.32800000  0.16000000  0.094 -0.2280011386
O  O200  1  0.82200000  0.32800000  0.84000000  0.094 -0.2280011386
O  O225  1  0.59500000  0.66500000  0.28000000  0.094 -0.2752848476
O  O226  1  0.40500000  0.33500000  0.28000000  0.094 -0.2752848476
O  O227  1  0.40500000  0.66500000  0.72000000  0.094 -0.2752848476
O  O228  1  0.59500000  0.33500000  0.72000000  0.094 -0.2752848476
O  O229  1  0.28000000  0.59500000  0.66500000  0.094 -0.2752848476
O  O230  1  0.28000000  0.40500000  0.33500000  0.094 -0.2752848476
O  O231  1  0.72000000  0.40500000  0.66500000  0.094 -0.2752848476
O  O232  1  0.72000000  0.59500000  0.33500000  0.094 -0.2752848476
O  O233  1  0.66500000  0.28000000  0.59500000  0.094 -0.2752848476
O  O234  1  0.33500000  0.28000000  0.40500000  0.094 -0.2752848476
O  O235  1  0.66500000  0.72000000  0.40500000  0.094 -0.2752848476
O  O236  1  0.33500000  0.72000000  0.59500000  0.094 -0.2752848476
O  O237  1  0.09500000  0.16500000  0.78000000  0.094 -0.2746370345
O  O238  1  0.90500000  0.83500000  0.78000000  0.094 -0.2752848476
O  O239  1  0.90500000  0.16500000  0.22000000  0.094 -0.2752848476
O  O240  1  0.09500000  0.83500000  0.22000000  0.094 -0.2752848476
O  O241  1  0.78000000  0.09500000  0.16500000  0.094 -0.2752848476
O  O242  1  0.78000000  0.90500000  0.83500000  0.094 -0.2752848476
O  O243  1  0.22000000  0.90500000  0.16500000  0.094 -0.2752848476
O  O244  1  0.22000000  0.09500000  0.83500000  0.094 -0.2746370345
O  O245  1  0.16500000  0.78000000  0.09500000  0.094 -0.2752848476
O  O246  1  0.83500000  0.78000000  0.90500000  0.094 -0.2752848476
O  O247  1  0.16500000  0.22000000  0.90500000  0.094 -0.2746370345
O  O248  1  0.83500000  0.22000000  0.09500000  0.094 -0.2752848476
O  O25  1  0.38690000  0.74970000  0.23580000  0.906 -0.2366678102
O  O26  1  0.61310000  0.25030000  0.23580000  0.906 -0.2366678102
O  O27  1  0.61310000  0.74970000  0.76420000  0.906 -0.2366678102
O  O28  1  0.38690000  0.25030000  0.76420000  0.906 -0.2366678102
O  O29  1  0.23580000  0.38690000  0.74970000  0.906 -0.2366678102
O  O30  1  0.23580000  0.61310000  0.25030000  0.906 -0.2366678102
O  O31  1  0.76420000  0.61310000  0.74970000  0.906 -0.2366678102
O  O32  1  0.76420000  0.38690000  0.25030000  0.906 -0.2366678102
O  O33  1  0.74970000  0.23580000  0.38690000  0.906 -0.2366678102
O  O34  1  0.25030000  0.23580000  0.61310000  0.906 -0.2366678102
O  O35  1  0.74970000  0.76420000  0.61310000  0.906 -0.2366678102
O  O36  1  0.25030000  0.76420000  0.38690000  0.906 -0.2366678102
O  O37  1  0.88690000  0.24970000  0.73580000  0.906 -0.2366678102
O  O38  1  0.11310000  0.75030000  0.73580000  0.906 -0.2366678102
O  O39  1  0.11310000  0.24970000  0.26420000  0.906 -0.2366678102
O  O40  1  0.88690000  0.75030000  0.26420000  0.906 -0.2366678102
O  O41  1  0.73580000  0.88690000  0.24970000  0.906 -0.2366678102
O  O42  1  0.73580000  0.11310000  0.75030000  0.906 -0.2366678102
O  O43  1  0.26420000  0.11310000  0.24970000  0.906 -0.2366678102
O  O44  1  0.26420000  0.88690000  0.75030000  0.906 -0.2366678102
O  O45  1  0.24970000  0.73580000  0.88690000  0.906 -0.2366678102
O  O46  1  0.75030000  0.73580000  0.11310000  0.906 -0.2366678102
O  O47  1  0.24970000  0.26420000  0.11310000  0.906 -0.2366678102
O  O48  1  0.75030000  0.26420000  0.88690000  0.906 -0.2366678102
O  O73  1  0.63670000  0.72750000  0.17980000  0.906 -0.2366678102
O  O74  1  0.36330000  0.27250000  0.17980000  0.906 -0.2366678102
O  O75  1  0.36330000  0.72750000  0.82020000  0.906 -0.2366678102
O  O76  1  0.63670000  0.27250000  0.82020000  0.906 -0.2366678102
O  O77  1  0.17980000  0.63670000  0.72750000  0.906 -0.2366678102
O  O78  1  0.17980000  0.36330000  0.27250000  0.906 -0.2366678102
O  O79  1  0.82020000  0.36330000  0.72750000  0.906 -0.2366678102
O  O80  1  0.82020000  0.63670000  0.27250000  0.906 -0.2366678102
O  O81  1  0.72750000  0.17980000  0.63670000  0.906 -0.2366678102
O  O82  1  0.27250000  0.17980000  0.36330000  0.906 -0.2366678102
O  O83  1  0.72750000  0.82020000  0.36330000  0.906 -0.2366678102
O  O84  1  0.27250000  0.82020000  0.63670000  0.906 -0.2366678102
O  O85  1  0.13670000  0.22750000  0.67980000  0.906 -0.2366678102
O  O86  1  0.86330000  0.77250000  0.67980000  0.906 -0.2366678102
O  O87  1  0.86330000  0.22750000  0.32020000  0.906 -0.2366678102
O  O88  1  0.13670000  0.77250000  0.32020000  0.906 -0.2366678102
O  O89  1  0.67980000  0.13670000  0.22750000  0.906 -0.2366678102
O  O90  1  0.67980000  0.86330000  0.77250000  0.906 -0.2366678102
O  O91  1  0.32020000  0.86330000  0.22750000  0.906 -0.2366678102
O  O92  1  0.32020000  0.13670000  0.77250000  0.906 -0.2366678102
O  O93  1  0.22750000  0.67980000  0.13670000  0.906 -0.2366678102
O  O94  1  0.77250000  0.67980000  0.86330000  0.906 -0.2366678102
O  O95  1  0.22750000  0.32020000  0.86330000  0.906 -0.2366678102
O  O96  1  0.77250000  0.32020000  0.13670000  0.906 -0.2366678102
O  O153  1  0.34780000  0.66400000  0.21040000  0.906 -0.2182274396
O  O154  1  0.65220000  0.33600000  0.21040000  0.906 -0.2182274396
O  O155  1  0.65220000  0.66400000  0.78960000  0.906 -0.2182274396
O  O156  1  0.34780000  0.33600000  0.78960000  0.906 -0.2182274396
O  O157  1  0.21040000  0.34780000  0.66400000  0.906 -0.2182274396
O  O158  1  0.21040000  0.65220000  0.33600000  0.906 -0.2182274396
O  O159  1  0.78960000  0.65220000  0.66400000  0.906 -0.2182274396
O  O160  1  0.78960000  0.34780000  0.33600000  0.906 -0.2182274396
O  O161  1  0.66400000  0.21040000  0.34780000  0.906 -0.2182274396
O  O162  1  0.33600000  0.21040000  0.65220000  0.906 -0.2182274396
O  O163  1  0.66400000  0.78960000  0.65220000  0.906 -0.2182274396
O  O164  1  0.33600000  0.78960000  0.34780000  0.906 -0.2182274396
O  O165  1  0.84780000  0.16400000  0.71040000  0.906 -0.2182274396
O  O166  1  0.15220000  0.83600000  0.71040000  0.906 -0.2182274396
O  O167  1  0.15220000  0.16400000  0.28960000  0.906 -0.2182274396
O  O168  1  0.84780000  0.83600000  0.28960000  0.906 -0.2182274396
O  O169  1  0.71040000  0.84780000  0.16400000  0.906 -0.2182274396
O  O170  1  0.71040000  0.15220000  0.83600000  0.906 -0.2182274396
O  O171  1  0.28960000  0.15220000  0.16400000  0.906 -0.2182274396
O  O172  1  0.28960000  0.84780000  0.83600000  0.906 -0.2182274396
O  O173  1  0.16400000  0.71040000  0.84780000  0.906 -0.2182274396
O  O174  1  0.83600000  0.71040000  0.15220000  0.906 -0.2182274396
O  O175  1  0.16400000  0.28960000  0.15220000  0.906 -0.2182274396
O  O176  1  0.83600000  0.28960000  0.84780000  0.906 -0.2182274396
O  O201  1  0.62480000  0.68500000  0.26550000  0.906 -0.1335744787
O  O202  1  0.37520000  0.31500000  0.26550000  0.906 -0.1335744787
O  O203  1  0.37520000  0.68500000  0.73450000  0.906 -0.1335744787
O  O204  1  0.62480000  0.31500000  0.73450000  0.906 -0.1335744787
O  O205  1  0.26550000  0.62480000  0.68500000  0.906 -0.1335744787
O  O206  1  0.26550000  0.37520000  0.31500000  0.906 -0.1335744787
O  O207  1  0.73450000  0.37520000  0.68500000  0.906 -0.1335744787
O  O208  1  0.73450000  0.62480000  0.31500000  0.906 -0.1335744787
O  O209  1  0.68500000  0.26550000  0.62480000  0.906 -0.1335744787
O  O210  1  0.31500000  0.26550000  0.37520000  0.906 -0.1335744787
O  O211  1  0.68500000  0.73450000  0.37520000  0.906 -0.1335744787
O  O212  1  0.31500000  0.73450000  0.62480000  0.906 -0.1335744787
O  O213  1  0.12480000  0.18500000  0.76550000  0.906 -0.1335744787
O  O214  1  0.87520000  0.81500000  0.76550000  0.906 -0.1335744787
O  O215  1  0.87520000  0.18500000  0.23450000  0.906 -0.1335744787
O  O216  1  0.12480000  0.81500000  0.23450000  0.906 -0.1335744787
O  O217  1  0.76550000  0.12480000  0.18500000  0.906 -0.1335744787
O  O218  1  0.76550000  0.87520000  0.81500000  0.906 -0.1335744787
O  O219  1  0.23450000  0.87520000  0.18500000  0.906 -0.1335744787
O  O220  1  0.23450000  0.12480000  0.81500000  0.906 -0.1335744787
O  O221  1  0.18500000  0.76550000  0.12480000  0.906 -0.1335744787
O  O222  1  0.81500000  0.76550000  0.87520000  0.906 -0.1335744787
O  O223  1  0.18500000  0.23450000  0.87520000  0.906 -0.1335744787
O  O224  1  0.81500000  0.23450000  0.12480000  0.906 -0.1335744787
