# DDEC6 charges by PACMAN v1.1 (https://github.com/mtap-research/PACMAN-charge/)
data_ja9b10501_si_023_FSR_pacman
_symmetry_space_group_name_H-M   'P 1'
_cell_length_a   19.42480000
_cell_length_b   19.42480000
_cell_length_c   35.73450000
_cell_angle_alpha   90.00000000
_cell_angle_beta   90.00000000
_cell_angle_gamma   90.00000000
_symmetry_Int_Tables_number   1
_chemical_formula_structural   Al16H216C296N14.4O84.8
_chemical_formula_sum   'Al16 H216 C296 N14.4 O84.8'
_cell_volume   13483.44356343
_cell_formula_units_Z   1
loop_
 _symmetry_equiv_pos_site_id
 _symmetry_equiv_pos_as_xyz
  1  'x, y, z'
loop_
 _atom_site_type_symbol
 _atom_site_label
 _atom_site_symmetry_multiplicity
 _atom_site_fract_x
 _atom_site_fract_y
 _atom_site_fract_z
 _atom_site_occupancy
 _atom_site_charge
Al  Al1  1  0.60459000  0.61891000  0.91788000  1.0 1.4388917571
Al  Al2  1  0.39541000  0.38109000  0.91788000  1.0 1.4388917571
Al  Al3  1  0.88109000  0.10459000  0.41788000  1.0 1.4388917571
Al  Al4  1  0.11891000  0.89541000  0.41788000  1.0 1.4388917571
Al  Al5  1  0.89541000  0.11891000  0.58212000  1.0 1.4388917571
Al  Al6  1  0.10459000  0.88109000  0.58212000  1.0 1.4388917571
Al  Al7  1  0.61891000  0.60459000  0.08212000  1.0 1.4388917571
Al  Al8  1  0.38109000  0.39541000  0.08212000  1.0 1.4388917571
Al  Al9  1  0.66003000  0.66003000  0.00000000  1.0 1.3415414577
Al  Al10  1  0.33997000  0.33997000  0.00000000  1.0 1.3415414577
Al  Al11  1  0.83997000  0.16003000  0.50000000  1.0 1.3415414577
Al  Al12  1  0.16003000  0.83997000  0.50000000  1.0 1.3415414577
Al  Al13  1  0.50000000  0.50000000  0.88417000  1.0 1.6514120584
Al  Al14  1  0.00000000  0.00000000  0.38417000  1.0 1.6514120584
Al  Al15  1  0.00000000  0.00000000  0.61583000  1.0 1.6514120584
Al  Al16  1  0.50000000  0.50000000  0.11583000  1.0 1.6514120584
H  H1  1  0.49881000  0.56853000  0.94088000  1.0 0.4024596175
H  H2  1  0.63138000  0.54954000  0.97244000  1.0 0.4087458809
H  H3  1  0.86117000  0.70629000  0.96042000  1.0 0.1208336356
H  H4  1  0.34460000  0.64289000  0.86120000  1.0 0.1208336356
H  H5  1  0.86875000  0.69317000  0.83037000  1.0 0.1005827557
H  H6  1  0.99846000  0.92068000  0.72171000  1.0 0.1208336356
H  H7  1  0.00013000  0.86612000  0.77987000  1.0 0.1126354835
H  H8  1  0.76392000  0.68473000  0.86136000  1.0 0.1266351452
H  H9  1  0.21935000  0.48806000  0.89507000  1.0 0.1126354835
H  H10  1  0.95889000  0.77062000  0.81398000  1.0 0.1005827557
H  H11  1  0.11971000  0.71494000  0.73754000  1.0 0.1208336356
H  H12  1  0.11482000  0.76638000  0.67930000  1.0 0.1208336356
H  H13  1  0.15741000  0.71276000  0.80024000  1.0 0.1126354835
H  H14  1  0.24891000  0.70917000  0.84606000  1.0 0.1126354835
H  H15  1  0.05260000  0.65375000  0.89238000  1.0 0.1208336356
H  H16  1  0.96733000  0.71576000  0.92990000  1.0 0.1126354835
H  H17  1  0.12357000  0.55501000  0.87941000  1.0 0.1126354835
H  H18  1  0.50119000  0.43147000  0.94088000  1.0 0.4024596175
H  H19  1  0.36862000  0.45046000  0.97244000  1.0 0.4087458809
H  H20  1  0.13883000  0.29371000  0.96042000  1.0 0.1208336356
H  H21  1  0.65540000  0.35711000  0.86120000  1.0 0.1208336356
H  H22  1  0.13125000  0.30683000  0.83037000  1.0 0.1005827557
H  H23  1  0.00154000  0.07932000  0.72171000  1.0 0.1208336356
H  H24  1  0.99987000  0.13388000  0.77987000  1.0 0.1126354835
H  H25  1  0.23608000  0.31527000  0.86136000  1.0 0.1266351452
H  H26  1  0.78065000  0.51194000  0.89507000  1.0 0.1126354835
H  H27  1  0.04111000  0.22938000  0.81398000  1.0 0.1005827557
H  H28  1  0.88029000  0.28506000  0.73754000  1.0 0.1208336356
H  H29  1  0.88518000  0.23362000  0.67930000  1.0 0.1208336356
H  H30  1  0.84259000  0.28724000  0.80024000  1.0 0.1126354835
H  H31  1  0.75109000  0.29083000  0.84606000  1.0 0.1126354835
H  H32  1  0.94740000  0.34625000  0.89238000  1.0 0.1208336356
H  H33  1  0.03267000  0.28424000  0.92990000  1.0 0.1126354835
H  H34  1  0.87643000  0.44499000  0.87941000  1.0 0.1126354835
H  H35  1  0.93147000  0.99881000  0.44088000  1.0 0.4024596175
H  H36  1  0.95046000  0.13138000  0.47244000  1.0 0.4087458809
H  H37  1  0.79371000  0.36117000  0.46042000  1.0 0.1208336356
H  H38  1  0.85711000  0.84460000  0.36120000  1.0 0.1208336356
H  H39  1  0.80683000  0.36875000  0.33037000  1.0 0.1005827557
H  H40  1  0.57932000  0.49846000  0.22171000  1.0 0.1208336356
H  H41  1  0.63388000  0.50013000  0.27987000  1.0 0.1126354835
H  H42  1  0.81527000  0.26392000  0.36136000  1.0 0.1266351452
H  H43  1  0.01194000  0.71935000  0.39507000  1.0 0.1126354835
H  H44  1  0.72938000  0.45889000  0.31398000  1.0 0.1005827557
H  H45  1  0.78506000  0.61971000  0.23754000  1.0 0.1208336356
H  H46  1  0.73362000  0.61482000  0.17930000  1.0 0.1208336356
H  H47  1  0.78724000  0.65741000  0.30024000  1.0 0.1126354835
H  H48  1  0.79083000  0.74891000  0.34606000  1.0 0.1126354835
H  H49  1  0.84625000  0.55260000  0.39238000  1.0 0.1208336356
H  H50  1  0.78424000  0.46733000  0.42990000  1.0 0.1126354835
H  H51  1  0.94499000  0.62357000  0.37941000  1.0 0.1126354835
H  H52  1  0.06853000  0.00119000  0.44088000  1.0 0.4024596175
H  H53  1  0.04954000  0.86862000  0.47244000  1.0 0.4087458809
H  H54  1  0.20629000  0.63883000  0.46042000  1.0 0.1208336356
H  H55  1  0.14289000  0.15540000  0.36120000  1.0 0.1208336356
H  H56  1  0.19317000  0.63125000  0.33037000  1.0 0.1005827557
H  H57  1  0.42068000  0.50154000  0.22171000  1.0 0.1208336356
H  H58  1  0.36612000  0.49987000  0.27987000  1.0 0.1126354835
H  H59  1  0.18473000  0.73608000  0.36136000  1.0 0.1266351452
H  H60  1  0.98806000  0.28065000  0.39507000  1.0 0.1126354835
H  H61  1  0.27062000  0.54111000  0.31398000  1.0 0.1005827557
H  H62  1  0.21494000  0.38029000  0.23754000  1.0 0.1208336356
H  H63  1  0.26638000  0.38518000  0.17930000  1.0 0.1208336356
H  H64  1  0.21276000  0.34259000  0.30024000  1.0 0.1126354835
H  H65  1  0.20917000  0.25109000  0.34606000  1.0 0.1126354835
H  H66  1  0.15375000  0.44740000  0.39238000  1.0 0.1208336356
H  H67  1  0.21576000  0.53267000  0.42990000  1.0 0.1126354835
H  H68  1  0.05501000  0.37643000  0.37941000  1.0 0.1126354835
H  H69  1  0.00119000  0.06853000  0.55912000  1.0 0.4024596175
H  H70  1  0.86862000  0.04954000  0.52756000  1.0 0.4087458809
H  H71  1  0.63883000  0.20629000  0.53958000  1.0 0.1208336356
H  H72  1  0.15540000  0.14289000  0.63880000  1.0 0.1208336356
H  H73  1  0.63125000  0.19317000  0.66963000  1.0 0.1005827557
H  H74  1  0.50154000  0.42068000  0.77829000  1.0 0.1208336356
H  H75  1  0.49987000  0.36612000  0.72013000  1.0 0.1126354835
H  H76  1  0.73608000  0.18473000  0.63864000  1.0 0.1266351452
H  H77  1  0.28065000  0.98806000  0.60493000  1.0 0.1126354835
H  H78  1  0.54111000  0.27062000  0.68602000  1.0 0.1005827557
H  H79  1  0.38029000  0.21494000  0.76246000  1.0 0.1208336356
H  H80  1  0.38518000  0.26638000  0.82070000  1.0 0.1208336356
H  H81  1  0.34259000  0.21276000  0.69976000  1.0 0.1126354835
H  H82  1  0.25109000  0.20917000  0.65394000  1.0 0.1126354835
H  H83  1  0.44740000  0.15375000  0.60762000  1.0 0.1208336356
H  H84  1  0.53267000  0.21576000  0.57010000  1.0 0.1126354835
H  H85  1  0.37643000  0.05501000  0.62059000  1.0 0.1126354835
H  H86  1  0.99881000  0.93147000  0.55912000  1.0 0.4024596175
H  H87  1  0.13138000  0.95046000  0.52756000  1.0 0.4087458809
H  H88  1  0.36117000  0.79371000  0.53958000  1.0 0.1208336356
H  H89  1  0.84460000  0.85711000  0.63880000  1.0 0.1208336356
H  H90  1  0.36875000  0.80683000  0.66963000  1.0 0.1005827557
H  H91  1  0.49846000  0.57932000  0.77829000  1.0 0.1208336356
H  H92  1  0.50013000  0.63388000  0.72013000  1.0 0.1126354835
H  H93  1  0.26392000  0.81527000  0.63864000  1.0 0.1266351452
H  H94  1  0.71935000  0.01194000  0.60493000  1.0 0.1126354835
H  H95  1  0.45889000  0.72938000  0.68602000  1.0 0.1005827557
H  H96  1  0.61971000  0.78506000  0.76246000  1.0 0.1208336356
H  H97  1  0.61482000  0.73362000  0.82070000  1.0 0.1208336356
H  H98  1  0.65741000  0.78724000  0.69976000  1.0 0.1126354835
H  H99  1  0.74891000  0.79083000  0.65394000  1.0 0.1126354835
H  H100  1  0.55260000  0.84625000  0.60762000  1.0 0.1208336356
H  H101  1  0.46733000  0.78424000  0.57010000  1.0 0.1126354835
H  H102  1  0.62357000  0.94499000  0.62059000  1.0 0.1126354835
H  H103  1  0.56853000  0.49881000  0.05912000  1.0 0.4024596175
H  H104  1  0.54954000  0.63138000  0.02756000  1.0 0.4087458809
H  H105  1  0.70629000  0.86117000  0.03958000  1.0 0.1208336356
H  H106  1  0.64289000  0.34460000  0.13880000  1.0 0.1208336356
H  H107  1  0.69317000  0.86875000  0.16963000  1.0 0.1005827557
H  H108  1  0.92068000  0.99846000  0.27829000  1.0 0.1208336356
H  H109  1  0.86612000  0.00013000  0.22013000  1.0 0.1126354835
H  H110  1  0.68473000  0.76392000  0.13864000  1.0 0.1266351452
H  H111  1  0.48806000  0.21935000  0.10493000  1.0 0.1126354835
H  H112  1  0.77062000  0.95889000  0.18602000  1.0 0.1005827557
H  H113  1  0.71494000  0.11971000  0.26246000  1.0 0.1208336356
H  H114  1  0.76638000  0.11482000  0.32070000  1.0 0.1208336356
H  H115  1  0.71276000  0.15741000  0.19976000  1.0 0.1126354835
H  H116  1  0.70917000  0.24891000  0.15394000  1.0 0.1126354835
H  H117  1  0.65375000  0.05260000  0.10762000  1.0 0.1208336356
H  H118  1  0.71576000  0.96733000  0.07010000  1.0 0.1126354835
H  H119  1  0.55501000  0.12357000  0.12059000  1.0 0.1126354835
H  H120  1  0.43147000  0.50119000  0.05912000  1.0 0.4024596175
H  H121  1  0.45046000  0.36862000  0.02756000  1.0 0.4087458809
H  H122  1  0.29371000  0.13883000  0.03958000  1.0 0.1208336356
H  H123  1  0.35711000  0.65540000  0.13880000  1.0 0.1208336356
H  H124  1  0.30683000  0.13125000  0.16963000  1.0 0.1005827557
H  H125  1  0.07932000  0.00154000  0.27829000  1.0 0.1208336356
H  H126  1  0.13388000  0.99987000  0.22013000  1.0 0.1126354835
H  H127  1  0.31527000  0.23608000  0.13864000  1.0 0.1266351452
H  H128  1  0.51194000  0.78065000  0.10493000  1.0 0.1126354835
H  H129  1  0.22938000  0.04111000  0.18602000  1.0 0.1005827557
H  H130  1  0.28506000  0.88029000  0.26246000  1.0 0.1208336356
H  H131  1  0.23362000  0.88518000  0.32070000  1.0 0.1208336356
H  H132  1  0.28724000  0.84259000  0.19976000  1.0 0.1126354835
H  H133  1  0.29083000  0.75109000  0.15394000  1.0 0.1126354835
H  H134  1  0.34625000  0.94740000  0.10762000  1.0 0.1208336356
H  H135  1  0.28424000  0.03267000  0.07010000  1.0 0.1126354835
H  H136  1  0.44499000  0.87643000  0.12059000  1.0 0.1126354835
H  H137  1  0.41929000  0.71650000  0.91289000  0.3 0.0805592734
H  H138  1  0.47930000  0.74430000  0.88577000  0.3 0.0584285452
H  H139  1  0.45998000  0.85658000  0.90323000  0.3 0.1005827557
H  H140  1  0.43215000  0.79558000  0.83917000  0.3 0.1005827557
H  H141  1  0.21274000  0.88662000  0.86103000  0.3 0.0805592734
H  H142  1  0.44253000  0.74749000  0.82109000  0.3 0.0684558588
H  H143  1  0.25259000  0.89496000  0.82919000  0.3 0.1005827557
H  H144  1  0.32463000  0.89915000  0.97628000  0.3 0.1005827557
H  H145  1  0.35697000  0.94141000  0.94201000  0.3 0.0805592734
H  H146  1  0.48489000  0.83861000  0.87776000  0.3 0.0584285452
H  H147  1  0.43119000  0.70796000  0.89739000  0.3 0.0880162601
H  H148  1  0.49726000  0.72498000  0.87178000  0.3 0.0805592734
H  H149  1  0.28909000  0.93596000  0.88937000  0.3 0.0880162601
H  H150  1  0.29568000  0.86410000  0.91132000  0.3 0.0880162601
H  H151  1  0.37616000  0.94867000  0.93341000  0.3 0.0805592734
H  H152  1  0.41195000  0.94758000  0.89290000  0.3 0.0805592734
H  H153  1  0.24655000  0.90979000  0.92616000  0.3 0.1005827557
H  H154  1  0.26185000  0.83108000  0.93631000  0.3 0.0880162601
H  H155  1  0.15228000  0.91155000  0.77146000  0.3 0.0880162601
H  H156  1  0.14301000  0.86551000  0.80825000  0.3 0.1005827557
H  H157  1  0.17679000  0.94045000  0.81122000  0.3 0.0805592734
H  H158  1  0.42924000  0.80065000  0.74502000  0.3 0.1545766813
H  H159  1  0.45203000  0.81635000  0.78720000  0.3 0.0684558588
H  H160  1  0.40998000  0.74770000  0.77769000  0.3 0.1351611947
H  H161  1  0.35049000  0.66931000  0.73246000  0.3 0.1208336356
H  H162  1  0.34066000  0.66272000  0.77677000  0.3 0.1208336356
H  H163  1  0.28910000  0.70950000  0.75283000  0.3 0.1208336356
H  H164  1  0.19637000  0.88785000  0.73609000  0.3 0.0584285452
H  H165  1  0.18592000  0.88871000  0.78051000  0.3 0.1126354835
H  H166  1  0.24667000  0.93259000  0.76191000  0.3 0.0805592734
H  H167  1  0.58071000  0.28350000  0.91289000  0.3 0.0805592734
H  H168  1  0.52070000  0.25570000  0.88577000  0.3 0.0584285452
H  H169  1  0.54002000  0.14342000  0.90323000  0.3 0.1005827557
H  H170  1  0.56785000  0.20442000  0.83917000  0.3 0.1005827557
H  H171  1  0.78726000  0.11338000  0.86103000  0.3 0.0805592734
H  H172  1  0.55747000  0.25251000  0.82109000  0.3 0.0684558588
H  H173  1  0.74741000  0.10504000  0.82919000  0.3 0.1005827557
H  H174  1  0.67537000  0.10085000  0.97628000  0.3 0.1005827557
H  H175  1  0.64303000  0.05859000  0.94201000  0.3 0.0805592734
H  H176  1  0.51511000  0.16139000  0.87776000  0.3 0.0584285452
H  H177  1  0.56881000  0.29204000  0.89739000  0.3 0.0880162601
H  H178  1  0.50274000  0.27502000  0.87178000  0.3 0.0805592734
H  H179  1  0.71091000  0.06404000  0.88937000  0.3 0.0880162601
H  H180  1  0.70432000  0.13590000  0.91132000  0.3 0.0880162601
H  H181  1  0.62384000  0.05133000  0.93341000  0.3 0.0805592734
H  H182  1  0.58805000  0.05242000  0.89290000  0.3 0.0805592734
H  H183  1  0.75345000  0.09021000  0.92616000  0.3 0.1005827557
H  H184  1  0.73815000  0.16892000  0.93631000  0.3 0.0880162601
H  H185  1  0.84772000  0.08845000  0.77146000  0.3 0.0880162601
H  H186  1  0.85699000  0.13449000  0.80825000  0.3 0.1005827557
H  H187  1  0.82321000  0.05955000  0.81122000  0.3 0.0805592734
H  H188  1  0.57076000  0.19935000  0.74502000  0.3 0.1545766813
H  H189  1  0.54797000  0.18365000  0.78720000  0.3 0.0684558588
H  H190  1  0.59002000  0.25230000  0.77769000  0.3 0.1351611947
H  H191  1  0.64951000  0.33069000  0.73246000  0.3 0.1208336356
H  H192  1  0.65934000  0.33728000  0.77677000  0.3 0.1208336356
H  H193  1  0.71090000  0.29050000  0.75283000  0.3 0.1208336356
H  H194  1  0.80363000  0.11215000  0.73609000  0.3 0.0584285452
H  H195  1  0.81408000  0.11129000  0.78051000  0.3 0.1126354835
H  H196  1  0.75333000  0.06741000  0.76191000  0.3 0.0805592734
H  H197  1  0.78350000  0.91929000  0.41289000  0.3 0.0805592734
H  H198  1  0.75570000  0.97930000  0.38577000  0.3 0.0584285452
H  H199  1  0.64342000  0.95998000  0.40323000  0.3 0.1005827557
H  H200  1  0.70442000  0.93215000  0.33917000  0.3 0.1005827557
H  H201  1  0.61338000  0.71274000  0.36103000  0.3 0.0805592734
H  H202  1  0.75251000  0.94253000  0.32109000  0.3 0.0684558588
H  H203  1  0.60504000  0.75259000  0.32919000  0.3 0.1005827557
H  H204  1  0.60085000  0.82463000  0.47628000  0.3 0.1005827557
H  H205  1  0.55859000  0.85697000  0.44201000  0.3 0.0805592734
H  H206  1  0.66139000  0.98489000  0.37776000  0.3 0.0584285452
H  H207  1  0.79204000  0.93119000  0.39739000  0.3 0.0880162601
H  H208  1  0.77502000  0.99726000  0.37178000  0.3 0.0805592734
H  H209  1  0.56404000  0.78909000  0.38937000  0.3 0.0880162601
H  H210  1  0.63590000  0.79568000  0.41132000  0.3 0.0880162601
H  H211  1  0.55133000  0.87616000  0.43341000  0.3 0.0805592734
H  H212  1  0.55242000  0.91195000  0.39290000  0.3 0.0805592734
H  H213  1  0.59021000  0.74655000  0.42616000  0.3 0.1005827557
H  H214  1  0.66892000  0.76185000  0.43631000  0.3 0.0880162601
H  H215  1  0.58845000  0.65228000  0.27146000  0.3 0.0880162601
H  H216  1  0.63449000  0.64301000  0.30825000  0.3 0.1005827557
H  H217  1  0.55955000  0.67679000  0.31122000  0.3 0.0805592734
H  H218  1  0.69935000  0.92924000  0.24502000  0.3 0.1545766813
H  H219  1  0.68365000  0.95203000  0.28720000  0.3 0.0684558588
H  H220  1  0.75230000  0.90998000  0.27769000  0.3 0.1351611947
H  H221  1  0.83069000  0.85049000  0.23246000  0.3 0.1208336356
H  H222  1  0.83728000  0.84066000  0.27677000  0.3 0.1208336356
H  H223  1  0.79050000  0.78910000  0.25283000  0.3 0.1208336356
H  H224  1  0.61215000  0.69637000  0.23609000  0.3 0.0584285452
H  H225  1  0.61129000  0.68592000  0.28051000  0.3 0.1126354835
H  H226  1  0.56741000  0.74667000  0.26191000  0.3 0.0805592734
H  H227  1  0.21650000  0.08071000  0.41289000  0.3 0.0805592734
H  H228  1  0.24430000  0.02070000  0.38577000  0.3 0.0584285452
H  H229  1  0.35658000  0.04002000  0.40323000  0.3 0.1005827557
H  H230  1  0.29558000  0.06785000  0.33917000  0.3 0.1005827557
H  H231  1  0.38662000  0.28726000  0.36103000  0.3 0.0805592734
H  H232  1  0.24749000  0.05747000  0.32109000  0.3 0.0684558588
H  H233  1  0.39496000  0.24741000  0.32919000  0.3 0.1005827557
H  H234  1  0.39915000  0.17537000  0.47628000  0.3 0.1005827557
H  H235  1  0.44141000  0.14303000  0.44201000  0.3 0.0805592734
H  H236  1  0.33861000  0.01511000  0.37776000  0.3 0.0584285452
H  H237  1  0.20796000  0.06881000  0.39739000  0.3 0.0880162601
H  H238  1  0.22498000  0.00274000  0.37178000  0.3 0.0805592734
H  H239  1  0.43596000  0.21091000  0.38937000  0.3 0.0880162601
H  H240  1  0.36410000  0.20432000  0.41132000  0.3 0.0880162601
H  H241  1  0.44867000  0.12384000  0.43341000  0.3 0.0805592734
H  H242  1  0.44758000  0.08805000  0.39290000  0.3 0.0805592734
H  H243  1  0.40979000  0.25345000  0.42616000  0.3 0.1005827557
H  H244  1  0.33108000  0.23815000  0.43631000  0.3 0.0880162601
H  H245  1  0.41155000  0.34772000  0.27146000  0.3 0.0880162601
H  H246  1  0.36551000  0.35699000  0.30825000  0.3 0.1005827557
H  H247  1  0.44045000  0.32321000  0.31122000  0.3 0.0805592734
H  H248  1  0.30065000  0.07076000  0.24502000  0.3 0.1545766813
H  H249  1  0.31635000  0.04797000  0.28720000  0.3 0.0684558588
H  H250  1  0.24770000  0.09002000  0.27769000  0.3 0.1351611947
H  H251  1  0.16931000  0.14951000  0.23246000  0.3 0.1208336356
H  H252  1  0.16272000  0.15934000  0.27677000  0.3 0.1208336356
H  H253  1  0.20950000  0.21090000  0.25283000  0.3 0.1208336356
H  H254  1  0.38785000  0.30363000  0.23609000  0.3 0.0584285452
H  H255  1  0.38871000  0.31408000  0.28051000  0.3 0.1126354835
H  H256  1  0.43259000  0.25333000  0.26191000  0.3 0.0805592734
H  H257  1  0.08071000  0.21650000  0.58711000  0.3 0.0805592734
H  H258  1  0.02070000  0.24430000  0.61423000  0.3 0.0584285452
H  H259  1  0.04002000  0.35658000  0.59677000  0.3 0.1005827557
H  H260  1  0.06785000  0.29558000  0.66083000  0.3 0.1005827557
H  H261  1  0.28726000  0.38662000  0.63897000  0.3 0.0805592734
H  H262  1  0.05747000  0.24749000  0.67891000  0.3 0.0684558588
H  H263  1  0.24741000  0.39496000  0.67081000  0.3 0.1005827557
H  H264  1  0.17537000  0.39915000  0.52372000  0.3 0.1005827557
H  H265  1  0.14303000  0.44141000  0.55799000  0.3 0.0805592734
H  H266  1  0.01511000  0.33861000  0.62224000  0.3 0.0584285452
H  H267  1  0.06881000  0.20796000  0.60261000  0.3 0.0880162601
H  H268  1  0.00274000  0.22498000  0.62822000  0.3 0.0805592734
H  H269  1  0.21091000  0.43596000  0.61063000  0.3 0.0880162601
H  H270  1  0.20432000  0.36410000  0.58868000  0.3 0.0880162601
H  H271  1  0.12384000  0.44867000  0.56659000  0.3 0.0805592734
H  H272  1  0.08805000  0.44758000  0.60710000  0.3 0.0805592734
H  H273  1  0.25345000  0.40979000  0.57384000  0.3 0.1005827557
H  H274  1  0.23815000  0.33108000  0.56369000  0.3 0.0880162601
H  H275  1  0.34772000  0.41155000  0.72854000  0.3 0.0880162601
H  H276  1  0.35699000  0.36551000  0.69175000  0.3 0.1005827557
H  H277  1  0.32321000  0.44045000  0.68878000  0.3 0.0805592734
H  H278  1  0.07076000  0.30065000  0.75498000  0.3 0.1545766813
H  H279  1  0.04797000  0.31635000  0.71280000  0.3 0.0684558588
H  H280  1  0.09002000  0.24770000  0.72231000  0.3 0.1351611947
H  H281  1  0.14951000  0.16931000  0.76754000  0.3 0.1208336356
H  H282  1  0.15934000  0.16272000  0.72323000  0.3 0.1208336356
H  H283  1  0.21090000  0.20950000  0.74717000  0.3 0.1208336356
H  H284  1  0.30363000  0.38785000  0.76391000  0.3 0.0584285452
H  H285  1  0.31408000  0.38871000  0.71949000  0.3 0.1126354835
H  H286  1  0.25333000  0.43259000  0.73809000  0.3 0.0805592734
H  H287  1  0.91929000  0.78350000  0.58711000  0.3 0.0805592734
H  H288  1  0.97930000  0.75570000  0.61423000  0.3 0.0584285452
H  H289  1  0.95998000  0.64342000  0.59677000  0.3 0.1005827557
H  H290  1  0.93215000  0.70442000  0.66083000  0.3 0.1005827557
H  H291  1  0.71274000  0.61338000  0.63897000  0.3 0.0805592734
H  H292  1  0.94253000  0.75251000  0.67891000  0.3 0.0684558588
H  H293  1  0.75259000  0.60504000  0.67081000  0.3 0.1005827557
H  H294  1  0.82463000  0.60085000  0.52372000  0.3 0.1005827557
H  H295  1  0.85697000  0.55859000  0.55799000  0.3 0.0805592734
H  H296  1  0.98489000  0.66139000  0.62224000  0.3 0.0584285452
H  H297  1  0.93119000  0.79204000  0.60261000  0.3 0.0880162601
H  H298  1  0.99726000  0.77502000  0.62822000  0.3 0.0805592734
H  H299  1  0.78909000  0.56404000  0.61063000  0.3 0.0880162601
H  H300  1  0.79568000  0.63590000  0.58868000  0.3 0.0880162601
H  H301  1  0.87616000  0.55133000  0.56659000  0.3 0.0805592734
H  H302  1  0.91195000  0.55242000  0.60710000  0.3 0.0805592734
H  H303  1  0.74655000  0.59021000  0.57384000  0.3 0.1005827557
H  H304  1  0.76185000  0.66892000  0.56369000  0.3 0.0880162601
H  H305  1  0.65228000  0.58845000  0.72854000  0.3 0.0880162601
H  H306  1  0.64301000  0.63449000  0.69175000  0.3 0.1005827557
H  H307  1  0.67679000  0.55955000  0.68878000  0.3 0.0805592734
H  H308  1  0.92924000  0.69935000  0.75498000  0.3 0.1545766813
H  H309  1  0.95203000  0.68365000  0.71280000  0.3 0.0684558588
H  H310  1  0.90998000  0.75230000  0.72231000  0.3 0.1351611947
H  H311  1  0.85049000  0.83069000  0.76754000  0.3 0.1208336356
H  H312  1  0.84066000  0.83728000  0.72323000  0.3 0.1208336356
H  H313  1  0.78910000  0.79050000  0.74717000  0.3 0.1208336356
H  H314  1  0.69637000  0.61215000  0.76391000  0.3 0.0584285452
H  H315  1  0.68592000  0.61129000  0.71949000  0.3 0.1126354835
H  H316  1  0.74667000  0.56741000  0.73809000  0.3 0.0805592734
H  H317  1  0.71650000  0.41929000  0.08711000  0.3 0.0805592734
H  H318  1  0.74430000  0.47930000  0.11423000  0.3 0.0584285452
H  H319  1  0.85658000  0.45998000  0.09677000  0.3 0.1005827557
H  H320  1  0.79558000  0.43215000  0.16083000  0.3 0.1005827557
H  H321  1  0.88662000  0.21274000  0.13897000  0.3 0.0805592734
H  H322  1  0.74749000  0.44253000  0.17891000  0.3 0.0684558588
H  H323  1  0.89496000  0.25259000  0.17081000  0.3 0.1005827557
H  H324  1  0.89915000  0.32463000  0.02372000  0.3 0.1005827557
H  H325  1  0.94141000  0.35697000  0.05799000  0.3 0.0805592734
H  H326  1  0.83861000  0.48489000  0.12224000  0.3 0.0584285452
H  H327  1  0.70796000  0.43119000  0.10261000  0.3 0.0880162601
H  H328  1  0.72498000  0.49726000  0.12822000  0.3 0.0805592734
H  H329  1  0.93596000  0.28909000  0.11063000  0.3 0.0880162601
H  H330  1  0.86410000  0.29568000  0.08868000  0.3 0.0880162601
H  H331  1  0.94867000  0.37616000  0.06659000  0.3 0.0805592734
H  H332  1  0.94758000  0.41195000  0.10710000  0.3 0.0805592734
H  H333  1  0.90979000  0.24655000  0.07384000  0.3 0.1005827557
H  H334  1  0.83108000  0.26185000  0.06369000  0.3 0.0880162601
H  H335  1  0.91155000  0.15228000  0.22854000  0.3 0.0880162601
H  H336  1  0.86551000  0.14301000  0.19175000  0.3 0.1005827557
H  H337  1  0.94045000  0.17679000  0.18878000  0.3 0.0805592734
H  H338  1  0.80065000  0.42924000  0.25498000  0.3 0.1545766813
H  H339  1  0.81635000  0.45203000  0.21280000  0.3 0.0684558588
H  H340  1  0.74770000  0.40998000  0.22231000  0.3 0.1351611947
H  H341  1  0.66931000  0.35049000  0.26754000  0.3 0.1208336356
H  H342  1  0.66272000  0.34066000  0.22323000  0.3 0.1208336356
H  H343  1  0.70950000  0.28910000  0.24717000  0.3 0.1208336356
H  H344  1  0.88785000  0.19637000  0.26391000  0.3 0.0584285452
H  H345  1  0.88871000  0.18592000  0.21949000  0.3 0.1126354835
H  H346  1  0.93259000  0.24667000  0.23809000  0.3 0.0805592734
H  H347  1  0.28350000  0.58071000  0.08711000  0.3 0.0805592734
H  H348  1  0.25570000  0.52070000  0.11423000  0.3 0.0584285452
H  H349  1  0.14342000  0.54002000  0.09677000  0.3 0.1005827557
H  H350  1  0.20442000  0.56785000  0.16083000  0.3 0.1005827557
H  H351  1  0.11338000  0.78726000  0.13897000  0.3 0.0805592734
H  H352  1  0.25251000  0.55747000  0.17891000  0.3 0.0684558588
H  H353  1  0.10504000  0.74741000  0.17081000  0.3 0.1005827557
H  H354  1  0.10085000  0.67537000  0.02372000  0.3 0.1005827557
H  H355  1  0.05859000  0.64303000  0.05799000  0.3 0.0805592734
H  H356  1  0.16139000  0.51511000  0.12224000  0.3 0.0584285452
H  H357  1  0.29204000  0.56881000  0.10261000  0.3 0.0880162601
H  H358  1  0.27502000  0.50274000  0.12822000  0.3 0.0805592734
H  H359  1  0.06404000  0.71091000  0.11063000  0.3 0.0880162601
H  H360  1  0.13590000  0.70432000  0.08868000  0.3 0.0880162601
H  H361  1  0.05133000  0.62384000  0.06659000  0.3 0.0805592734
H  H362  1  0.05242000  0.58805000  0.10710000  0.3 0.0805592734
H  H363  1  0.09021000  0.75345000  0.07384000  0.3 0.1005827557
H  H364  1  0.16892000  0.73815000  0.06369000  0.3 0.0880162601
H  H365  1  0.08845000  0.84772000  0.22854000  0.3 0.0880162601
H  H366  1  0.13449000  0.85699000  0.19175000  0.3 0.1005827557
H  H367  1  0.05955000  0.82321000  0.18878000  0.3 0.0805592734
H  H368  1  0.19935000  0.57076000  0.25498000  0.3 0.1545766813
H  H369  1  0.18365000  0.54797000  0.21280000  0.3 0.0684558588
H  H370  1  0.25230000  0.59002000  0.22231000  0.3 0.1351611947
H  H371  1  0.33069000  0.64951000  0.26754000  0.3 0.1208336356
H  H372  1  0.33728000  0.65934000  0.22323000  0.3 0.1208336356
H  H373  1  0.29050000  0.71090000  0.24717000  0.3 0.1208336356
H  H374  1  0.11215000  0.80363000  0.26391000  0.3 0.0584285452
H  H375  1  0.11129000  0.81408000  0.21949000  0.3 0.1126354835
H  H376  1  0.06741000  0.75333000  0.23809000  0.3 0.0805592734
H  H377  1  0.53303000  0.77702000  0.95655000  0.4 0.0880162601
H  H378  1  0.46697000  0.22298000  0.95655000  0.4 0.0880162601
H  H379  1  0.72298000  0.03303000  0.45655000  0.4 0.0880162601
H  H380  1  0.27702000  0.96697000  0.45655000  0.4 0.0880162601
H  H381  1  0.96697000  0.27702000  0.54345000  0.4 0.0880162601
H  H382  1  0.03303000  0.72298000  0.54345000  0.4 0.0805592734
H  H383  1  0.77702000  0.53303000  0.04345000  0.4 0.0880162601
H  H384  1  0.22298000  0.46697000  0.04345000  0.4 0.0805592734
H  H385  1  0.55765000  0.79565000  0.01213000  0.6 0.1208336356
H  H386  1  0.44235000  0.20435000  0.01213000  0.6 0.1208336356
H  H387  1  0.70435000  0.05765000  0.51213000  0.6 0.1208336356
H  H388  1  0.29565000  0.94235000  0.51213000  0.6 0.1208336356
H  H389  1  0.94235000  0.29565000  0.48787000  0.6 0.1208336356
H  H390  1  0.05765000  0.70435000  0.48787000  0.6 0.1208336356
H  H391  1  0.79565000  0.55765000  0.98787000  0.6 0.1208336356
H  H392  1  0.20435000  0.44235000  0.98787000  0.6 0.1208336356
C  C1  1  0.73550000  0.68460000  0.93297000  1.0 0.6018309777
C  C2  1  0.80330000  0.69500000  0.91384000  1.0 -0.0294443327
C  C3  1  0.35280000  0.51470000  0.88660000  1.0 0.6322534268
C  C4  1  0.86310000  0.70390000  0.93388000  1.0 -0.0982010059
C  C5  1  0.05470000  0.88170000  0.65760000  1.0 0.5789654439
C  C6  1  0.05720000  0.84950000  0.69503000  1.0 -0.0726031619
C  C7  1  0.29190000  0.55860000  0.87860000  1.0 -0.0398361462
C  C8  1  0.29970000  0.62460000  0.86471000  1.0 -0.1891054836
C  C9  1  0.86740000  0.69620000  0.85689000  1.0 -0.1665300952
C  C10  1  0.02280000  0.87860000  0.72481000  1.0 -0.1299651075
C  C11  1  0.02400000  0.84590000  0.75943000  1.0 -0.1988593377
C  C12  1  0.80520000  0.69100000  0.87519000  1.0 -0.0982010059
C  C13  1  0.22550000  0.53270000  0.88476000  1.0 -0.0810188342
C  C14  1  0.99840000  0.74670000  0.82269000  1.0 -0.2390243963
C  C15  1  0.09420000  0.75630000  0.73441000  1.0 -0.1891054836
C  C16  1  0.99490000  0.71040000  0.85612000  1.0 0.0805592734
C  C17  1  0.09220000  0.78730000  0.69995000  1.0 -0.1988593377
C  C18  1  0.11640000  0.71330000  0.81474000  1.0 -0.2298280022
C  C19  1  0.05960000  0.74890000  0.80143000  1.0 0.0805592734
C  C20  1  0.17640000  0.63880000  0.86122000  1.0 0.0880162601
C  C21  1  0.24270000  0.66420000  0.85588000  1.0 -0.2390243963
C  C22  1  0.11520000  0.67830000  0.84867000  1.0 0.1005827557
C  C23  1  0.92870000  0.70580000  0.87683000  1.0 0.0684558588
C  C24  1  0.05400000  0.67740000  0.86911000  1.0 -0.2102150272
C  C25  1  0.05940000  0.78430000  0.76491000  1.0 0.0472378844
C  C26  1  0.92630000  0.70950000  0.91586000  1.0 -0.1630766487
C  C27  1  0.16850000  0.57290000  0.87570000  1.0 -0.1395394767
C  C28  1  0.26450000  0.31540000  0.93297000  1.0 0.6018309777
C  C29  1  0.19670000  0.30500000  0.91384000  1.0 -0.0294443327
C  C30  1  0.64720000  0.48530000  0.88660000  1.0 0.6322534268
C  C31  1  0.13690000  0.29610000  0.93388000  1.0 -0.0982010059
C  C32  1  0.94530000  0.11830000  0.65760000  1.0 0.5789654439
C  C33  1  0.94280000  0.15050000  0.69503000  1.0 -0.0726031619
C  C34  1  0.70810000  0.44140000  0.87860000  1.0 -0.0398361462
C  C35  1  0.70030000  0.37540000  0.86471000  1.0 -0.1891054836
C  C36  1  0.13260000  0.30380000  0.85689000  1.0 -0.1665300952
C  C37  1  0.97720000  0.12140000  0.72481000  1.0 -0.1299651075
C  C38  1  0.97600000  0.15410000  0.75943000  1.0 -0.1988593377
C  C39  1  0.19480000  0.30900000  0.87519000  1.0 -0.0982010059
C  C40  1  0.77450000  0.46730000  0.88476000  1.0 -0.0810188342
C  C41  1  0.00160000  0.25330000  0.82269000  1.0 -0.2390243963
C  C42  1  0.90580000  0.24370000  0.73441000  1.0 -0.1891054836
C  C43  1  0.00510000  0.28960000  0.85612000  1.0 0.0805592734
C  C44  1  0.90780000  0.21270000  0.69995000  1.0 -0.1988593377
C  C45  1  0.88360000  0.28670000  0.81474000  1.0 -0.2298280022
C  C46  1  0.94040000  0.25110000  0.80143000  1.0 0.0805592734
C  C47  1  0.82360000  0.36120000  0.86122000  1.0 0.0880162601
C  C48  1  0.75730000  0.33580000  0.85588000  1.0 -0.2390243963
C  C49  1  0.88480000  0.32170000  0.84867000  1.0 0.1005827557
C  C50  1  0.07130000  0.29420000  0.87683000  1.0 0.0684558588
C  C51  1  0.94600000  0.32260000  0.86911000  1.0 -0.2102150272
C  C52  1  0.94060000  0.21570000  0.76491000  1.0 0.0472378844
C  C53  1  0.07370000  0.29050000  0.91586000  1.0 -0.1630766487
C  C54  1  0.83150000  0.42710000  0.87570000  1.0 -0.1395394767
C  C55  1  0.81540000  0.23550000  0.43297000  1.0 0.6018309777
C  C56  1  0.80500000  0.30330000  0.41384000  1.0 -0.0294443327
C  C57  1  0.98530000  0.85280000  0.38660000  1.0 0.6322534268
C  C58  1  0.79610000  0.36310000  0.43388000  1.0 -0.0982010059
C  C59  1  0.61830000  0.55470000  0.15760000  1.0 0.5789654439
C  C60  1  0.65050000  0.55720000  0.19503000  1.0 -0.0726031619
C  C61  1  0.94140000  0.79190000  0.37860000  1.0 -0.0398361462
C  C62  1  0.87540000  0.79970000  0.36471000  1.0 -0.1891054836
C  C63  1  0.80380000  0.36740000  0.35689000  1.0 -0.1665300952
C  C64  1  0.62140000  0.52280000  0.22481000  1.0 -0.1299651075
C  C65  1  0.65410000  0.52400000  0.25943000  1.0 -0.1988593377
C  C66  1  0.80900000  0.30520000  0.37519000  1.0 -0.0982010059
C  C67  1  0.96730000  0.72550000  0.38476000  1.0 -0.0810188342
C  C68  1  0.75330000  0.49840000  0.32269000  1.0 -0.2390243963
C  C69  1  0.74370000  0.59420000  0.23441000  1.0 -0.1891054836
C  C70  1  0.78960000  0.49490000  0.35612000  1.0 0.0805592734
C  C71  1  0.71270000  0.59220000  0.19995000  1.0 -0.1988593377
C  C72  1  0.78670000  0.61640000  0.31474000  1.0 -0.2298280022
C  C73  1  0.75110000  0.55960000  0.30143000  1.0 0.0805592734
C  C74  1  0.86120000  0.67640000  0.36122000  1.0 0.0880162601
C  C75  1  0.83580000  0.74270000  0.35588000  1.0 -0.2390243963
C  C76  1  0.82170000  0.61520000  0.34867000  1.0 0.1005827557
C  C77  1  0.79420000  0.42870000  0.37683000  1.0 0.0684558588
C  C78  1  0.82260000  0.55400000  0.36911000  1.0 -0.2102150272
C  C79  1  0.71570000  0.55940000  0.26491000  1.0 0.0472378844
C  C80  1  0.79050000  0.42630000  0.41586000  1.0 -0.1630766487
C  C81  1  0.92710000  0.66850000  0.37570000  1.0 -0.1395394767
C  C82  1  0.18460000  0.76450000  0.43297000  1.0 0.6018309777
C  C83  1  0.19500000  0.69670000  0.41384000  1.0 -0.0294443327
C  C84  1  0.01470000  0.14720000  0.38660000  1.0 0.6322534268
C  C85  1  0.20390000  0.63690000  0.43388000  1.0 -0.0982010059
C  C86  1  0.38170000  0.44530000  0.15760000  1.0 0.5789654439
C  C87  1  0.34950000  0.44280000  0.19503000  1.0 -0.0726031619
C  C88  1  0.05860000  0.20810000  0.37860000  1.0 -0.0398361462
C  C89  1  0.12460000  0.20030000  0.36471000  1.0 -0.1891054836
C  C90  1  0.19620000  0.63260000  0.35689000  1.0 -0.1665300952
C  C91  1  0.37860000  0.47720000  0.22481000  1.0 -0.1299651075
C  C92  1  0.34590000  0.47600000  0.25943000  1.0 -0.1988593377
C  C93  1  0.19100000  0.69480000  0.37519000  1.0 -0.0982010059
C  C94  1  0.03270000  0.27450000  0.38476000  1.0 -0.0810188342
C  C95  1  0.24670000  0.50160000  0.32269000  1.0 -0.2390243963
C  C96  1  0.25630000  0.40580000  0.23441000  1.0 -0.1891054836
C  C97  1  0.21040000  0.50510000  0.35612000  1.0 0.0805592734
C  C98  1  0.28730000  0.40780000  0.19995000  1.0 -0.1988593377
C  C99  1  0.21330000  0.38360000  0.31474000  1.0 -0.2298280022
C  C100  1  0.24890000  0.44040000  0.30143000  1.0 0.0805592734
C  C101  1  0.13880000  0.32360000  0.36122000  1.0 0.0880162601
C  C102  1  0.16420000  0.25730000  0.35588000  1.0 -0.2390243963
C  C103  1  0.17830000  0.38480000  0.34867000  1.0 0.1005827557
C  C104  1  0.20580000  0.57130000  0.37683000  1.0 0.0684558588
C  C105  1  0.17740000  0.44600000  0.36911000  1.0 -0.2102150272
C  C106  1  0.28430000  0.44060000  0.26491000  1.0 0.0472378844
C  C107  1  0.20950000  0.57370000  0.41586000  1.0 -0.1630766487
C  C108  1  0.07290000  0.33150000  0.37570000  1.0 -0.1395394767
C  C109  1  0.76450000  0.18460000  0.56703000  1.0 0.6018309777
C  C110  1  0.69670000  0.19500000  0.58616000  1.0 -0.0294443327
C  C111  1  0.14720000  0.01470000  0.61340000  1.0 0.6322534268
C  C112  1  0.63690000  0.20390000  0.56612000  1.0 -0.0982010059
C  C113  1  0.44530000  0.38170000  0.84240000  1.0 0.5789654439
C  C114  1  0.44280000  0.34950000  0.80497000  1.0 -0.0726031619
C  C115  1  0.20810000  0.05860000  0.62140000  1.0 -0.0398361462
C  C116  1  0.20030000  0.12460000  0.63529000  1.0 -0.1891054836
C  C117  1  0.63260000  0.19620000  0.64311000  1.0 -0.1665300952
C  C118  1  0.47720000  0.37860000  0.77519000  1.0 -0.1299651075
C  C119  1  0.47600000  0.34590000  0.74057000  1.0 -0.1988593377
C  C120  1  0.69480000  0.19100000  0.62481000  1.0 -0.0982010059
C  C121  1  0.27450000  0.03270000  0.61524000  1.0 -0.0810188342
C  C122  1  0.50160000  0.24670000  0.67731000  1.0 -0.2390243963
C  C123  1  0.40580000  0.25630000  0.76559000  1.0 -0.1891054836
C  C124  1  0.50510000  0.21040000  0.64388000  1.0 0.0805592734
C  C125  1  0.40780000  0.28730000  0.80005000  1.0 -0.1988593377
C  C126  1  0.38360000  0.21330000  0.68526000  1.0 -0.2298280022
C  C127  1  0.44040000  0.24890000  0.69857000  1.0 0.0805592734
C  C128  1  0.32360000  0.13880000  0.63878000  1.0 0.0880162601
C  C129  1  0.25730000  0.16420000  0.64412000  1.0 -0.2390243963
C  C130  1  0.38480000  0.17830000  0.65133000  1.0 0.1005827557
C  C131  1  0.57130000  0.20580000  0.62317000  1.0 0.0684558588
C  C132  1  0.44600000  0.17740000  0.63089000  1.0 -0.2102150272
C  C133  1  0.44060000  0.28430000  0.73509000  1.0 0.0472378844
C  C134  1  0.57370000  0.20950000  0.58414000  1.0 -0.1630766487
C  C135  1  0.33150000  0.07290000  0.62430000  1.0 -0.1395394767
C  C136  1  0.23550000  0.81540000  0.56703000  1.0 0.6018309777
C  C137  1  0.30330000  0.80500000  0.58616000  1.0 -0.0294443327
C  C138  1  0.85280000  0.98530000  0.61340000  1.0 0.6322534268
C  C139  1  0.36310000  0.79610000  0.56612000  1.0 -0.0982010059
C  C140  1  0.55470000  0.61830000  0.84240000  1.0 0.5789654439
C  C141  1  0.55720000  0.65050000  0.80497000  1.0 -0.0726031619
C  C142  1  0.79190000  0.94140000  0.62140000  1.0 -0.0398361462
C  C143  1  0.79970000  0.87540000  0.63529000  1.0 -0.1891054836
C  C144  1  0.36740000  0.80380000  0.64311000  1.0 -0.1665300952
C  C145  1  0.52280000  0.62140000  0.77519000  1.0 -0.1299651075
C  C146  1  0.52400000  0.65410000  0.74057000  1.0 -0.1988593377
C  C147  1  0.30520000  0.80900000  0.62481000  1.0 -0.0982010059
C  C148  1  0.72550000  0.96730000  0.61524000  1.0 -0.0810188342
C  C149  1  0.49840000  0.75330000  0.67731000  1.0 -0.2390243963
C  C150  1  0.59420000  0.74370000  0.76559000  1.0 -0.1891054836
C  C151  1  0.49490000  0.78960000  0.64388000  1.0 0.0805592734
C  C152  1  0.59220000  0.71270000  0.80005000  1.0 -0.1988593377
C  C153  1  0.61640000  0.78670000  0.68526000  1.0 -0.2298280022
C  C154  1  0.55960000  0.75110000  0.69857000  1.0 0.0805592734
C  C155  1  0.67640000  0.86120000  0.63878000  1.0 0.0880162601
C  C156  1  0.74270000  0.83580000  0.64412000  1.0 -0.2390243963
C  C157  1  0.61520000  0.82170000  0.65133000  1.0 0.1005827557
C  C158  1  0.42870000  0.79420000  0.62317000  1.0 0.0684558588
C  C159  1  0.55400000  0.82260000  0.63089000  1.0 -0.2102150272
C  C160  1  0.55940000  0.71570000  0.73509000  1.0 0.0472378844
C  C161  1  0.42630000  0.79050000  0.58414000  1.0 -0.1630766487
C  C162  1  0.66850000  0.92710000  0.62430000  1.0 -0.1395394767
C  C163  1  0.68460000  0.73550000  0.06703000  1.0 0.6018309777
C  C164  1  0.69500000  0.80330000  0.08616000  1.0 -0.0294443327
C  C165  1  0.51470000  0.35280000  0.11340000  1.0 0.6322534268
C  C166  1  0.70390000  0.86310000  0.06612000  1.0 -0.0982010059
C  C167  1  0.88170000  0.05470000  0.34240000  1.0 0.5789654439
C  C168  1  0.84950000  0.05720000  0.30497000  1.0 -0.0726031619
C  C169  1  0.55860000  0.29190000  0.12140000  1.0 -0.0398361462
C  C170  1  0.62460000  0.29970000  0.13529000  1.0 -0.1891054836
C  C171  1  0.69620000  0.86740000  0.14311000  1.0 -0.1665300952
C  C172  1  0.87860000  0.02280000  0.27519000  1.0 -0.1299651075
C  C173  1  0.84590000  0.02400000  0.24057000  1.0 -0.1988593377
C  C174  1  0.69100000  0.80520000  0.12481000  1.0 -0.0982010059
C  C175  1  0.53270000  0.22550000  0.11524000  1.0 -0.0810188342
C  C176  1  0.74670000  0.99840000  0.17731000  1.0 -0.2390243963
C  C177  1  0.75630000  0.09420000  0.26559000  1.0 -0.1891054836
C  C178  1  0.71040000  0.99490000  0.14388000  1.0 0.0805592734
C  C179  1  0.78730000  0.09220000  0.30005000  1.0 -0.1988593377
C  C180  1  0.71330000  0.11640000  0.18526000  1.0 -0.2298280022
C  C181  1  0.74890000  0.05960000  0.19857000  1.0 0.0805592734
C  C182  1  0.63880000  0.17640000  0.13878000  1.0 0.0880162601
C  C183  1  0.66420000  0.24270000  0.14412000  1.0 -0.2390243963
C  C184  1  0.67830000  0.11520000  0.15133000  1.0 0.1005827557
C  C185  1  0.70580000  0.92870000  0.12317000  1.0 0.0684558588
C  C186  1  0.67740000  0.05400000  0.13089000  1.0 -0.2102150272
C  C187  1  0.78430000  0.05940000  0.23509000  1.0 0.0472378844
C  C188  1  0.70950000  0.92630000  0.08414000  1.0 -0.1630766487
C  C189  1  0.57290000  0.16850000  0.12430000  1.0 -0.1395394767
C  C190  1  0.31540000  0.26450000  0.06703000  1.0 0.6018309777
C  C191  1  0.30500000  0.19670000  0.08616000  1.0 -0.0294443327
C  C192  1  0.48530000  0.64720000  0.11340000  1.0 0.6322534268
C  C193  1  0.29610000  0.13690000  0.06612000  1.0 -0.0982010059
C  C194  1  0.11830000  0.94530000  0.34240000  1.0 0.5789654439
C  C195  1  0.15050000  0.94280000  0.30497000  1.0 -0.0726031619
C  C196  1  0.44140000  0.70810000  0.12140000  1.0 -0.0398361462
C  C197  1  0.37540000  0.70030000  0.13529000  1.0 -0.1891054836
C  C198  1  0.30380000  0.13260000  0.14311000  1.0 -0.1665300952
C  C199  1  0.12140000  0.97720000  0.27519000  1.0 -0.1299651075
C  C200  1  0.15410000  0.97600000  0.24057000  1.0 -0.1988593377
C  C201  1  0.30900000  0.19480000  0.12481000  1.0 -0.0982010059
C  C202  1  0.46730000  0.77450000  0.11524000  1.0 -0.0810188342
C  C203  1  0.25330000  0.00160000  0.17731000  1.0 -0.2390243963
C  C204  1  0.24370000  0.90580000  0.26559000  1.0 -0.1891054836
C  C205  1  0.28960000  0.00510000  0.14388000  1.0 0.0805592734
C  C206  1  0.21270000  0.90780000  0.30005000  1.0 -0.1988593377
C  C207  1  0.28670000  0.88360000  0.18526000  1.0 -0.2298280022
C  C208  1  0.25110000  0.94040000  0.19857000  1.0 0.0805592734
C  C209  1  0.36120000  0.82360000  0.13878000  1.0 0.0880162601
C  C210  1  0.33580000  0.75730000  0.14412000  1.0 -0.2390243963
C  C211  1  0.32170000  0.88480000  0.15133000  1.0 0.1005827557
C  C212  1  0.29420000  0.07130000  0.12317000  1.0 0.0684558588
C  C213  1  0.32260000  0.94600000  0.13089000  1.0 -0.2102150272
C  C214  1  0.21570000  0.94060000  0.23509000  1.0 0.0472378844
C  C215  1  0.29050000  0.07370000  0.08414000  1.0 -0.1630766487
C  C216  1  0.42710000  0.83150000  0.12430000  1.0 -0.1395394767
C  C217  1  0.50520000  0.75190000  0.94240000  0.3 0.012701286
C  C218  1  0.49670000  0.79140000  0.96940000  0.3 -0.0810188342
C  C219  1  0.45480000  0.75260000  0.90960000  0.3 -0.1395394767
C  C220  1  0.42200000  0.82400000  0.90980000  0.3 0.0684558588
C  C221  1  0.36840000  0.83320000  0.87960000  0.3 0.0299489128
C  C222  1  0.38760000  0.81410000  0.84360000  0.3 -0.0810188342
C  C223  1  0.34160000  0.82190000  0.81410000  0.3 0.0472378844
C  C224  1  0.27650000  0.84900000  0.82060000  0.3 -0.0220901875
C  C225  1  0.25730000  0.86810000  0.85660000  0.3 -0.1299651075
C  C226  1  0.30320000  0.86030000  0.88610000  0.3 -0.0641400295
C  C227  1  0.33670000  0.85970000  0.85740000  0.3 0.0038188065
C  C228  1  0.39310000  0.81590000  0.85500000  0.3 -0.0525562232
C  C229  1  0.40400000  0.77740000  0.82270000  0.3 -0.1630766487
C  C230  1  0.35840000  0.78270000  0.79290000  0.3 0.0431866521
C  C231  1  0.30200000  0.82650000  0.79530000  0.3 0.1208336356
C  C232  1  0.29110000  0.86500000  0.82750000  0.3 -0.0810188342
C  C233  1  0.34060000  0.89540000  0.95010000  0.3 -0.1630766487
C  C234  1  0.44360000  0.81450000  0.88810000  0.3 -0.0294443327
C  C235  1  0.47000000  0.74020000  0.89370000  0.3 -0.1241274087
C  C236  1  0.51540000  0.74390000  0.92900000  0.3 0.0584285452
C  C237  1  0.32000000  0.89600000  0.89410000  0.3 -0.0525562232
C  C238  1  0.38600000  0.92000000  0.91120000  0.3 -0.1988593377
C  C239  1  0.28200000  0.87400000  0.92580000  0.3 -0.1988593377
C  C240  1  0.46370000  0.85110000  0.95470000  0.3 0.0880162601
C  C241  1  0.51830000  0.79930000  0.95350000  0.3 -0.0810188342
C  C242  1  0.43680000  0.83690000  0.97980000  0.3 0.2299332691
C  C243  1  0.17260000  0.89900000  0.79560000  0.3 -0.2390243963
C  C244  1  0.41600000  0.79600000  0.77140000  0.3 -0.0294443327
C  C245  1  0.33680000  0.69380000  0.75530000  0.3 -0.391737547
C  C246  1  0.22000000  0.88990000  0.76030000  0.3 0.0431866521
C  C247  1  0.49480000  0.24810000  0.94240000  0.3 0.012701286
C  C248  1  0.50330000  0.20860000  0.96940000  0.3 -0.0810188342
C  C249  1  0.54520000  0.24740000  0.90960000  0.3 -0.1395394767
C  C250  1  0.57800000  0.17600000  0.90980000  0.3 0.0684558588
C  C251  1  0.63160000  0.16680000  0.87960000  0.3 0.0299489128
C  C252  1  0.61240000  0.18590000  0.84360000  0.3 -0.0810188342
C  C253  1  0.65840000  0.17810000  0.81410000  0.3 0.0472378844
C  C254  1  0.72350000  0.15100000  0.82060000  0.3 -0.0220901875
C  C255  1  0.74270000  0.13190000  0.85660000  0.3 -0.1299651075
C  C256  1  0.69680000  0.13970000  0.88610000  0.3 -0.0641400295
C  C257  1  0.66330000  0.14030000  0.85740000  0.3 0.0038188065
C  C258  1  0.60690000  0.18410000  0.85500000  0.3 -0.0525562232
C  C259  1  0.59600000  0.22260000  0.82270000  0.3 -0.1630766487
C  C260  1  0.64160000  0.21730000  0.79290000  0.3 0.0472378844
C  C261  1  0.69800000  0.17350000  0.79530000  0.3 0.1208336356
C  C262  1  0.70890000  0.13500000  0.82750000  0.3 -0.0855357463
C  C263  1  0.65940000  0.10460000  0.95010000  0.3 -0.1630766487
C  C264  1  0.55640000  0.18550000  0.88810000  0.3 -0.0294443327
C  C265  1  0.53000000  0.25980000  0.89370000  0.3 -0.1241274087
C  C266  1  0.48460000  0.25610000  0.92900000  0.3 0.0472378844
C  C267  1  0.68000000  0.10400000  0.89410000  0.3 -0.0525562232
C  C268  1  0.61400000  0.08000000  0.91120000  0.3 -0.1988593377
C  C269  1  0.71800000  0.12600000  0.92580000  0.3 -0.1988593377
C  C270  1  0.53630000  0.14890000  0.95470000  0.3 0.0880162601
C  C271  1  0.48170000  0.20070000  0.95350000  0.3 -0.0810188342
C  C272  1  0.56320000  0.16310000  0.97980000  0.3 0.2299332691
C  C273  1  0.82740000  0.10100000  0.79560000  0.3 -0.2390243963
C  C274  1  0.58400000  0.20400000  0.77140000  0.3 -0.0294443327
C  C275  1  0.66320000  0.30620000  0.75530000  0.3 -0.391737547
C  C276  1  0.78000000  0.11010000  0.76030000  0.3 0.0431866521
C  C277  1  0.74810000  0.00520000  0.44240000  0.3 0.012701286
C  C278  1  0.70860000  0.99670000  0.46940000  0.3 -0.0810188342
C  C279  1  0.74740000  0.95480000  0.40960000  0.3 -0.1395394767
C  C280  1  0.67600000  0.92200000  0.40980000  0.3 0.0684558588
C  C281  1  0.66680000  0.86840000  0.37960000  0.3 0.0299489128
C  C282  1  0.68590000  0.88760000  0.34360000  0.3 -0.0810188342
C  C283  1  0.67810000  0.84160000  0.31410000  0.3 0.0472378844
C  C284  1  0.65100000  0.77650000  0.32060000  0.3 -0.0220901875
C  C285  1  0.63190000  0.75730000  0.35660000  0.3 -0.1299651075
C  C286  1  0.63970000  0.80320000  0.38610000  0.3 -0.0641400295
C  C287  1  0.64030000  0.83670000  0.35740000  0.3 0.0038188065
C  C288  1  0.68410000  0.89310000  0.35500000  0.3 -0.0525562232
C  C289  1  0.72260000  0.90400000  0.32270000  0.3 -0.1630766487
C  C290  1  0.71730000  0.85840000  0.29290000  0.3 0.0472378844
C  C291  1  0.67350000  0.80200000  0.29530000  0.3 0.1208336356
C  C292  1  0.63500000  0.79110000  0.32750000  0.3 -0.0810188342
C  C293  1  0.60460000  0.84060000  0.45010000  0.3 -0.1630766487
C  C294  1  0.68550000  0.94360000  0.38810000  0.3 -0.0294443327
C  C295  1  0.75980000  0.97000000  0.39370000  0.3 -0.1241274087
C  C296  1  0.75610000  0.01540000  0.42900000  0.3 0.0584285452
C  C297  1  0.60400000  0.82000000  0.39410000  0.3 -0.0525562232
C  C298  1  0.58000000  0.88600000  0.41120000  0.3 -0.2102150272
C  C299  1  0.62600000  0.78200000  0.42580000  0.3 -0.1988593377
C  C300  1  0.64890000  0.96370000  0.45470000  0.3 0.0880162601
C  C301  1  0.70070000  0.01830000  0.45350000  0.3 -0.0810188342
C  C302  1  0.66310000  0.93680000  0.47980000  0.3 0.2299332691
C  C303  1  0.60100000  0.67260000  0.29560000  0.3 -0.2390243963
C  C304  1  0.70400000  0.91600000  0.27140000  0.3 -0.0294443327
C  C305  1  0.80620000  0.83680000  0.25530000  0.3 -0.391737547
C  C306  1  0.61010000  0.72000000  0.26030000  0.3 0.0431866521
C  C307  1  0.25190000  0.99480000  0.44240000  0.3 0.012701286
C  C308  1  0.29140000  0.00330000  0.46940000  0.3 -0.0810188342
C  C309  1  0.25260000  0.04520000  0.40960000  0.3 -0.1395394767
C  C310  1  0.32400000  0.07800000  0.40980000  0.3 0.0684558588
C  C311  1  0.33320000  0.13160000  0.37960000  0.3 0.0299489128
C  C312  1  0.31410000  0.11240000  0.34360000  0.3 -0.0810188342
C  C313  1  0.32190000  0.15840000  0.31410000  0.3 0.0472378844
C  C314  1  0.34900000  0.22350000  0.32060000  0.3 -0.0220901875
C  C315  1  0.36810000  0.24270000  0.35660000  0.3 -0.1299651075
C  C316  1  0.36030000  0.19680000  0.38610000  0.3 -0.0641400295
C  C317  1  0.35970000  0.16330000  0.35740000  0.3 0.0038188065
C  C318  1  0.31590000  0.10690000  0.35500000  0.3 -0.0525562232
C  C319  1  0.27740000  0.09600000  0.32270000  0.3 -0.1630766487
C  C320  1  0.28270000  0.14160000  0.29290000  0.3 0.0431866521
C  C321  1  0.32650000  0.19800000  0.29530000  0.3 0.1208336356
C  C322  1  0.36500000  0.20890000  0.32750000  0.3 -0.0855357463
C  C323  1  0.39540000  0.15940000  0.45010000  0.3 -0.1630766487
C  C324  1  0.31450000  0.05640000  0.38810000  0.3 -0.0294443327
C  C325  1  0.24020000  0.03000000  0.39370000  0.3 -0.1241274087
C  C326  1  0.24390000  0.98460000  0.42900000  0.3 0.0584285452
C  C327  1  0.39600000  0.18000000  0.39410000  0.3 -0.0525562232
C  C328  1  0.42000000  0.11400000  0.41120000  0.3 -0.1988593377
C  C329  1  0.37400000  0.21800000  0.42580000  0.3 -0.1988593377
C  C330  1  0.35110000  0.03630000  0.45470000  0.3 0.0880162601
C  C331  1  0.29930000  0.98170000  0.45350000  0.3 -0.0810188342
C  C332  1  0.33690000  0.06320000  0.47980000  0.3 0.2299332691
C  C333  1  0.39900000  0.32740000  0.29560000  0.3 -0.2390243963
C  C334  1  0.29600000  0.08400000  0.27140000  0.3 -0.0294443327
C  C335  1  0.19380000  0.16320000  0.25530000  0.3 -0.391737547
C  C336  1  0.38990000  0.28000000  0.26030000  0.3 0.0431866521
C  C337  1  0.99480000  0.25190000  0.55760000  0.3 0.012701286
C  C338  1  0.00330000  0.29140000  0.53060000  0.3 -0.0810188342
C  C339  1  0.04520000  0.25260000  0.59040000  0.3 -0.1395394767
C  C340  1  0.07800000  0.32400000  0.59020000  0.3 0.0684558588
C  C341  1  0.13160000  0.33320000  0.62040000  0.3 0.0299489128
C  C342  1  0.11240000  0.31410000  0.65640000  0.3 -0.0810188342
C  C343  1  0.15840000  0.32190000  0.68590000  0.3 0.0472378844
C  C344  1  0.22350000  0.34900000  0.67940000  0.3 -0.0220901875
C  C345  1  0.24270000  0.36810000  0.64340000  0.3 -0.1299651075
C  C346  1  0.19680000  0.36030000  0.61390000  0.3 -0.0641400295
C  C347  1  0.16330000  0.35970000  0.64260000  0.3 0.0038188065
C  C348  1  0.10690000  0.31590000  0.64500000  0.3 -0.0525562232
C  C349  1  0.09600000  0.27740000  0.67730000  0.3 -0.1630766487
C  C350  1  0.14160000  0.28270000  0.70710000  0.3 0.0431866521
C  C351  1  0.19800000  0.32650000  0.70470000  0.3 0.1208336356
C  C352  1  0.20890000  0.36500000  0.67250000  0.3 -0.0855357463
C  C353  1  0.15940000  0.39540000  0.54990000  0.3 -0.1630766487
C  C354  1  0.05640000  0.31450000  0.61190000  0.3 -0.0294443327
C  C355  1  0.03000000  0.24020000  0.60630000  0.3 -0.1241274087
C  C356  1  0.98460000  0.24390000  0.57100000  0.3 0.0584285452
C  C357  1  0.18000000  0.39600000  0.60590000  0.3 -0.0525562232
C  C358  1  0.11400000  0.42000000  0.58880000  0.3 -0.1988593377
C  C359  1  0.21800000  0.37400000  0.57420000  0.3 -0.1988593377
C  C360  1  0.03630000  0.35110000  0.54530000  0.3 0.0880162601
C  C361  1  0.98170000  0.29930000  0.54650000  0.3 -0.0810188342
C  C362  1  0.06320000  0.33690000  0.52020000  0.3 0.2299332691
C  C363  1  0.32740000  0.39900000  0.70440000  0.3 -0.2390243963
C  C364  1  0.08400000  0.29600000  0.72860000  0.3 -0.0294443327
C  C365  1  0.16320000  0.19380000  0.74470000  0.3 -0.391737547
C  C366  1  0.28000000  0.38990000  0.73970000  0.3 0.0431866521
C  C367  1  0.00520000  0.74810000  0.55760000  0.3 0.012701286
C  C368  1  0.99670000  0.70860000  0.53060000  0.3 -0.0810188342
C  C369  1  0.95480000  0.74740000  0.59040000  0.3 -0.1395394767
C  C370  1  0.92200000  0.67600000  0.59020000  0.3 0.0684558588
C  C371  1  0.86840000  0.66680000  0.62040000  0.3 0.0299489128
C  C372  1  0.88760000  0.68590000  0.65640000  0.3 -0.0810188342
C  C373  1  0.84160000  0.67810000  0.68590000  0.3 0.0472378844
C  C374  1  0.77650000  0.65100000  0.67940000  0.3 -0.0220901875
C  C375  1  0.75730000  0.63190000  0.64340000  0.3 -0.1299651075
C  C376  1  0.80320000  0.63970000  0.61390000  0.3 -0.0641400295
C  C377  1  0.83670000  0.64030000  0.64260000  0.3 0.0038188065
C  C378  1  0.89310000  0.68410000  0.64500000  0.3 -0.0525562232
C  C379  1  0.90400000  0.72260000  0.67730000  0.3 -0.1630766487
C  C380  1  0.85840000  0.71730000  0.70710000  0.3 0.0431866521
C  C381  1  0.80200000  0.67350000  0.70470000  0.3 0.1208336356
C  C382  1  0.79110000  0.63500000  0.67250000  0.3 -0.0810188342
C  C383  1  0.84060000  0.60460000  0.54990000  0.3 -0.1630766487
C  C384  1  0.94360000  0.68550000  0.61190000  0.3 -0.0294443327
C  C385  1  0.97000000  0.75980000  0.60630000  0.3 -0.1241274087
C  C386  1  0.01540000  0.75610000  0.57100000  0.3 0.0584285452
C  C387  1  0.82000000  0.60400000  0.60590000  0.3 -0.0525562232
C  C388  1  0.88600000  0.58000000  0.58880000  0.3 -0.2102150272
C  C389  1  0.78200000  0.62600000  0.57420000  0.3 -0.1988593377
C  C390  1  0.96370000  0.64890000  0.54530000  0.3 0.0880162601
C  C391  1  0.01830000  0.70070000  0.54650000  0.3 -0.0810188342
C  C392  1  0.93680000  0.66310000  0.52020000  0.3 0.2299332691
C  C393  1  0.67260000  0.60100000  0.70440000  0.3 -0.2390243963
C  C394  1  0.91600000  0.70400000  0.72860000  0.3 -0.0294443327
C  C395  1  0.83680000  0.80620000  0.74470000  0.3 -0.391737547
C  C396  1  0.72000000  0.61010000  0.73970000  0.3 0.0431866521
C  C397  1  0.75190000  0.50520000  0.05760000  0.3 0.012701286
C  C398  1  0.79140000  0.49670000  0.03060000  0.3 -0.0810188342
C  C399  1  0.75260000  0.45480000  0.09040000  0.3 -0.1395394767
C  C400  1  0.82400000  0.42200000  0.09020000  0.3 0.0684558588
C  C401  1  0.83320000  0.36840000  0.12040000  0.3 0.0299489128
C  C402  1  0.81410000  0.38760000  0.15640000  0.3 -0.0810188342
C  C403  1  0.82190000  0.34160000  0.18590000  0.3 0.0472378844
C  C404  1  0.84900000  0.27650000  0.17940000  0.3 -0.0220901875
C  C405  1  0.86810000  0.25730000  0.14340000  0.3 -0.1299651075
C  C406  1  0.86030000  0.30320000  0.11390000  0.3 -0.0641400295
C  C407  1  0.85970000  0.33670000  0.14260000  0.3 0.0038188065
C  C408  1  0.81590000  0.39310000  0.14500000  0.3 -0.0525562232
C  C409  1  0.77740000  0.40400000  0.17730000  0.3 -0.1630766487
C  C410  1  0.78270000  0.35840000  0.20710000  0.3 0.0472378844
C  C411  1  0.82650000  0.30200000  0.20470000  0.3 0.1208336356
C  C412  1  0.86500000  0.29110000  0.17250000  0.3 -0.0810188342
C  C413  1  0.89540000  0.34060000  0.04990000  0.3 -0.1630766487
C  C414  1  0.81450000  0.44360000  0.11190000  0.3 -0.0294443327
C  C415  1  0.74020000  0.47000000  0.10630000  0.3 -0.1241274087
C  C416  1  0.74390000  0.51540000  0.07100000  0.3 0.0584285452
C  C417  1  0.89600000  0.32000000  0.10590000  0.3 -0.0525562232
C  C418  1  0.92000000  0.38600000  0.08880000  0.3 -0.2102150272
C  C419  1  0.87400000  0.28200000  0.07420000  0.3 -0.1988593377
C  C420  1  0.85110000  0.46370000  0.04530000  0.3 0.0880162601
C  C421  1  0.79930000  0.51830000  0.04650000  0.3 -0.0810188342
C  C422  1  0.83690000  0.43680000  0.02020000  0.3 0.2299332691
C  C423  1  0.89900000  0.17260000  0.20440000  0.3 -0.2390243963
C  C424  1  0.79600000  0.41600000  0.22860000  0.3 -0.0294443327
C  C425  1  0.69380000  0.33680000  0.24470000  0.3 -0.391737547
C  C426  1  0.88990000  0.22000000  0.23970000  0.3 0.0431866521
C  C427  1  0.24810000  0.49480000  0.05760000  0.3 0.012701286
C  C428  1  0.20860000  0.50330000  0.03060000  0.3 -0.0810188342
C  C429  1  0.24740000  0.54520000  0.09040000  0.3 -0.1395394767
C  C430  1  0.17600000  0.57800000  0.09020000  0.3 0.0684558588
C  C431  1  0.16680000  0.63160000  0.12040000  0.3 0.0299489128
C  C432  1  0.18590000  0.61240000  0.15640000  0.3 -0.0810188342
C  C433  1  0.17810000  0.65840000  0.18590000  0.3 0.0472378844
C  C434  1  0.15100000  0.72350000  0.17940000  0.3 -0.0220901875
C  C435  1  0.13190000  0.74270000  0.14340000  0.3 -0.1299651075
C  C436  1  0.13970000  0.69680000  0.11390000  0.3 -0.0641400295
C  C437  1  0.14030000  0.66330000  0.14260000  0.3 0.0038188065
C  C438  1  0.18410000  0.60690000  0.14500000  0.3 -0.0525562232
C  C439  1  0.22260000  0.59600000  0.17730000  0.3 -0.1630766487
C  C440  1  0.21730000  0.64160000  0.20710000  0.3 0.0431866521
C  C441  1  0.17350000  0.69800000  0.20470000  0.3 0.1208336356
C  C442  1  0.13500000  0.70890000  0.17250000  0.3 -0.0810188342
C  C443  1  0.10460000  0.65940000  0.04990000  0.3 -0.1630766487
C  C444  1  0.18550000  0.55640000  0.11190000  0.3 -0.0294443327
C  C445  1  0.25980000  0.53000000  0.10630000  0.3 -0.1241274087
C  C446  1  0.25610000  0.48460000  0.07100000  0.3 0.0584285452
C  C447  1  0.10400000  0.68000000  0.10590000  0.3 -0.0525562232
C  C448  1  0.08000000  0.61400000  0.08880000  0.3 -0.1988593377
C  C449  1  0.12600000  0.71800000  0.07420000  0.3 -0.1988593377
C  C450  1  0.14890000  0.53630000  0.04530000  0.3 0.0880162601
C  C451  1  0.20070000  0.48170000  0.04650000  0.3 -0.0810188342
C  C452  1  0.16310000  0.56320000  0.02020000  0.3 0.2299332691
C  C453  1  0.10100000  0.82740000  0.20440000  0.3 -0.2390243963
C  C454  1  0.20400000  0.58400000  0.22860000  0.3 -0.0294443327
C  C455  1  0.30620000  0.66320000  0.24470000  0.3 -0.391737547
C  C456  1  0.11010000  0.78000000  0.23970000  0.3 0.0431866521
C  C457  1  0.55830000  0.73520000  0.95590000  0.4 0.1740729844
C  C458  1  0.44170000  0.26480000  0.95590000  0.4 0.1740729844
C  C459  1  0.76480000  0.05830000  0.45590000  0.4 0.1740729844
C  C460  1  0.23520000  0.94170000  0.45590000  0.4 0.1740729844
C  C461  1  0.94170000  0.23520000  0.54410000  0.4 0.1740729844
C  C462  1  0.05830000  0.76480000  0.54410000  0.4 0.1740729844
C  C463  1  0.73520000  0.55830000  0.04410000  0.4 0.1740729844
C  C464  1  0.26480000  0.44170000  0.04410000  0.4 0.1740729844
C  C465  1  0.55860000  0.77670000  0.98760000  0.6 0.0805592734
C  C466  1  0.44140000  0.22330000  0.98760000  0.6 0.0805592734
C  C467  1  0.72330000  0.05860000  0.48760000  0.6 0.0805592734
C  C468  1  0.27670000  0.94140000  0.48760000  0.6 0.0805592734
C  C469  1  0.94140000  0.27670000  0.51240000  0.6 0.0805592734
C  C470  1  0.05860000  0.72330000  0.51240000  0.6 0.0805592734
C  C471  1  0.77670000  0.55860000  0.01240000  0.6 0.0805592734
C  C472  1  0.22330000  0.44140000  0.01240000  0.6 0.0805592734
N  N1  1  0.42610000  0.85750000  0.92230000  0.3 0.012701286
N  N2  1  0.39910000  0.84480000  0.94790000  0.3 -0.0525562232
N  N3  1  0.57390000  0.14250000  0.92230000  0.3 0.012701286
N  N4  1  0.60090000  0.15520000  0.94790000  0.3 -0.0525562232
N  N5  1  0.64250000  0.92610000  0.42230000  0.3 0.012701286
N  N6  1  0.65520000  0.89910000  0.44790000  0.3 -0.0525562232
N  N7  1  0.35750000  0.07390000  0.42230000  0.3 0.012701286
N  N8  1  0.34480000  0.10090000  0.44790000  0.3 -0.0525562232
N  N9  1  0.07390000  0.35750000  0.57770000  0.3 0.012701286
N  N10  1  0.10090000  0.34480000  0.55210000  0.3 -0.0525562232
N  N11  1  0.92610000  0.64250000  0.57770000  0.3 0.012701286
N  N12  1  0.89910000  0.65520000  0.55210000  0.3 -0.0525562232
N  N13  1  0.85750000  0.42610000  0.07770000  0.3 0.0158854553
N  N14  1  0.84480000  0.39910000  0.05210000  0.3 -0.0525562232
N  N15  1  0.14250000  0.57390000  0.07770000  0.3 0.012701286
N  N16  1  0.15520000  0.60090000  0.05210000  0.3 -0.0525562232
N  N17  1  0.59260000  0.72820000  0.97610000  0.6 -0.1891054836
N  N18  1  0.55940000  0.70230000  0.94050000  0.6 -0.0726031619
N  N19  1  0.40740000  0.27180000  0.97610000  0.6 -0.1891054836
N  N20  1  0.44060000  0.29770000  0.94050000  0.6 -0.0726031619
N  N21  1  0.77180000  0.09260000  0.47610000  0.6 -0.1891054836
N  N22  1  0.79770000  0.05940000  0.44050000  0.6 -0.0726031619
N  N23  1  0.22820000  0.90740000  0.47610000  0.6 -0.1891054836
N  N24  1  0.20230000  0.94060000  0.44050000  0.6 -0.0726031619
N  N25  1  0.90740000  0.22820000  0.52390000  0.6 -0.1891054836
N  N26  1  0.94060000  0.20230000  0.55950000  0.6 -0.0726031619
N  N27  1  0.09260000  0.77180000  0.52390000  0.6 -0.1891054836
N  N28  1  0.05940000  0.79770000  0.55950000  0.6 -0.0726031619
N  N29  1  0.72820000  0.59260000  0.02390000  0.6 -0.1891054836
N  N30  1  0.70230000  0.55940000  0.05950000  0.6 -0.0726031619
N  N31  1  0.27180000  0.40740000  0.02390000  0.6 -0.1891054836
N  N32  1  0.29770000  0.44060000  0.05950000  0.6 -0.0726031619
O  O1  1  0.73415000  0.68667000  0.96824000  1.0 -0.5668859149
O  O2  1  0.68456000  0.67360000  0.91207000  1.0 -0.5894239957
O  O3  1  0.52753000  0.56371000  0.91952000  1.0 -0.9444325638
O  O4  1  0.63187000  0.59668000  0.96536000  1.0 -0.8598241026
O  O5  1  0.41117000  0.54180000  0.88214000  1.0 -0.6273970717
O  O6  1  0.02623000  0.94010000  0.65556000  1.0 -0.5894239957
O  O7  1  0.08248000  0.85050000  0.63069000  1.0 -0.6032990331
O  O8  1  0.34181000  0.45370000  0.89730000  1.0 -0.6078378374
O  O9  1  0.26585000  0.31333000  0.96824000  1.0 -0.5668859149
O  O10  1  0.31544000  0.32640000  0.91207000  1.0 -0.5894239957
O  O11  1  0.47247000  0.43629000  0.91952000  1.0 -0.9444325638
O  O12  1  0.36813000  0.40332000  0.96536000  1.0 -0.8598241026
O  O13  1  0.58883000  0.45820000  0.88214000  1.0 -0.6273970717
O  O14  1  0.97377000  0.05990000  0.65556000  1.0 -0.5894239957
O  O15  1  0.91752000  0.14950000  0.63069000  1.0 -0.6032990331
O  O16  1  0.65819000  0.54630000  0.89730000  1.0 -0.6078378374
O  O17  1  0.81333000  0.23415000  0.46824000  1.0 -0.5668859149
O  O18  1  0.82640000  0.18456000  0.41207000  1.0 -0.5894239957
O  O19  1  0.93629000  0.02753000  0.41952000  1.0 -0.9444325638
O  O20  1  0.90332000  0.13187000  0.46536000  1.0 -0.8598241026
O  O21  1  0.95820000  0.91117000  0.38214000  1.0 -0.6273970717
O  O22  1  0.55990000  0.52623000  0.15556000  1.0 -0.5894239957
O  O23  1  0.64950000  0.58248000  0.13069000  1.0 -0.6032990331
O  O24  1  0.04630000  0.84181000  0.39730000  1.0 -0.6078378374
O  O25  1  0.18667000  0.76585000  0.46824000  1.0 -0.5668859149
O  O26  1  0.17360000  0.81544000  0.41207000  1.0 -0.5894239957
O  O27  1  0.06371000  0.97247000  0.41952000  1.0 -0.9444325638
O  O28  1  0.09668000  0.86813000  0.46536000  1.0 -0.8598241026
O  O29  1  0.04180000  0.08883000  0.38214000  1.0 -0.6273970717
O  O30  1  0.44010000  0.47377000  0.15556000  1.0 -0.5894239957
O  O31  1  0.35050000  0.41752000  0.13069000  1.0 -0.6032990331
O  O32  1  0.95370000  0.15819000  0.39730000  1.0 -0.6078378374
O  O33  1  0.76585000  0.18667000  0.53176000  1.0 -0.5668859149
O  O34  1  0.81544000  0.17360000  0.58793000  1.0 -0.5894239957
O  O35  1  0.97247000  0.06371000  0.58048000  1.0 -0.9444325638
O  O36  1  0.86813000  0.09668000  0.53464000  1.0 -0.8598241026
O  O37  1  0.08883000  0.04180000  0.61786000  1.0 -0.6273970717
O  O38  1  0.47377000  0.44010000  0.84444000  1.0 -0.5894239957
O  O39  1  0.41752000  0.35050000  0.86931000  1.0 -0.6032990331
O  O40  1  0.15819000  0.95370000  0.60270000  1.0 -0.6078378374
O  O41  1  0.23415000  0.81333000  0.53176000  1.0 -0.5668859149
O  O42  1  0.18456000  0.82640000  0.58793000  1.0 -0.5894239957
O  O43  1  0.02753000  0.93629000  0.58048000  1.0 -0.9444325638
O  O44  1  0.13187000  0.90332000  0.53464000  1.0 -0.8598241026
O  O45  1  0.91117000  0.95820000  0.61786000  1.0 -0.6273970717
O  O46  1  0.52623000  0.55990000  0.84444000  1.0 -0.5894239957
O  O47  1  0.58248000  0.64950000  0.86931000  1.0 -0.6032990331
O  O48  1  0.84181000  0.04630000  0.60270000  1.0 -0.6078378374
O  O49  1  0.68667000  0.73415000  0.03176000  1.0 -0.5668859149
O  O50  1  0.67360000  0.68456000  0.08793000  1.0 -0.5894239957
O  O51  1  0.56371000  0.52753000  0.08048000  1.0 -0.9453656489
O  O52  1  0.59668000  0.63187000  0.03464000  1.0 -0.8598241026
O  O53  1  0.54180000  0.41117000  0.11786000  1.0 -0.6273970717
O  O54  1  0.94010000  0.02623000  0.34444000  1.0 -0.5894239957
O  O55  1  0.85050000  0.08248000  0.36931000  1.0 -0.6032990331
O  O56  1  0.45370000  0.34181000  0.10270000  1.0 -0.6078378374
O  O57  1  0.31333000  0.26585000  0.03176000  1.0 -0.5668859149
O  O58  1  0.32640000  0.31544000  0.08793000  1.0 -0.5894239957
O  O59  1  0.43629000  0.47247000  0.08048000  1.0 -0.9444325638
O  O60  1  0.40332000  0.36813000  0.03464000  1.0 -0.8598241026
O  O61  1  0.45820000  0.58883000  0.11786000  1.0 -0.6273970717
O  O62  1  0.05990000  0.97377000  0.34444000  1.0 -0.5894239957
O  O63  1  0.14950000  0.91752000  0.36931000  1.0 -0.6032990331
O  O64  1  0.54630000  0.65819000  0.10270000  1.0 -0.6078378374
O  O65  1  0.54900000  0.69290000  0.93040000  0.4 -0.1299651075
O  O66  1  0.60220000  0.72160000  0.98110000  0.4 -0.3114507536
O  O67  1  0.45100000  0.30710000  0.93040000  0.4 -0.1299651075
O  O68  1  0.39780000  0.27840000  0.98110000  0.4 -0.3114507536
O  O69  1  0.80710000  0.04900000  0.43040000  0.4 -0.1299651075
O  O70  1  0.77840000  0.10220000  0.48110000  0.4 -0.3114507536
O  O71  1  0.19290000  0.95100000  0.43040000  0.4 -0.1299651075
O  O72  1  0.22160000  0.89780000  0.48110000  0.4 -0.3114507536
O  O73  1  0.95100000  0.19290000  0.56960000  0.4 -0.1299651075
O  O74  1  0.89780000  0.22160000  0.51890000  0.4 -0.3114507536
O  O75  1  0.04900000  0.80710000  0.56960000  0.4 -0.1299651075
O  O76  1  0.10220000  0.77840000  0.51890000  0.4 -0.3114507536
O  O77  1  0.69290000  0.54900000  0.06960000  0.4 -0.1299651075
O  O78  1  0.72160000  0.60220000  0.01890000  0.4 -0.3114507536
O  O79  1  0.30710000  0.45100000  0.06960000  0.4 -0.1299651075
O  O80  1  0.27840000  0.39780000  0.01890000  0.4 -0.3114507536
O  O81  1  0.42300000  0.86010000  0.00980000  0.3 -0.2390243963
O  O82  1  0.45070000  0.88860000  0.98380000  0.3 -0.0810188342
O  O83  1  0.38040000  0.75110000  0.76060000  0.3 -0.0525562232
O  O84  1  0.26460000  0.83310000  0.76370000  0.3 -0.1630766487
O  O85  1  0.23790000  0.87050000  0.78990000  0.3 0.0299489128
O  O86  1  0.35400000  0.83100000  0.77740000  0.3 -0.0525562232
O  O87  1  0.57700000  0.13990000  0.00980000  0.3 -0.2390243963
O  O88  1  0.54930000  0.11140000  0.98380000  0.3 -0.0726031619
O  O89  1  0.61960000  0.24890000  0.76060000  0.3 -0.0525562232
O  O90  1  0.73540000  0.16690000  0.76370000  0.3 -0.1630766487
O  O91  1  0.76210000  0.12950000  0.78990000  0.3 0.0299489128
O  O92  1  0.64600000  0.16900000  0.77740000  0.3 -0.0525562232
O  O93  1  0.63990000  0.92300000  0.50980000  0.3 -0.2390243963
O  O94  1  0.61140000  0.95070000  0.48380000  0.3 -0.0726031619
O  O95  1  0.74890000  0.88040000  0.26060000  0.3 -0.0525562232
O  O96  1  0.66690000  0.76460000  0.26370000  0.3 -0.1630766487
O  O97  1  0.62950000  0.73790000  0.28990000  0.3 0.0299489128
O  O98  1  0.66900000  0.85400000  0.27740000  0.3 -0.0525562232
O  O99  1  0.36010000  0.07700000  0.50980000  0.3 -0.2390243963
O  O100  1  0.38860000  0.04930000  0.48380000  0.3 -0.0810188342
O  O101  1  0.25110000  0.11960000  0.26060000  0.3 -0.0525562232
O  O102  1  0.33310000  0.23540000  0.26370000  0.3 -0.1630766487
O  O103  1  0.37050000  0.26210000  0.28990000  0.3 0.0299489128
O  O104  1  0.33100000  0.14600000  0.27740000  0.3 -0.0525562232
O  O105  1  0.07700000  0.36010000  0.49020000  0.3 -0.2390243963
O  O106  1  0.04930000  0.38860000  0.51620000  0.3 -0.0810188342
O  O107  1  0.11960000  0.25110000  0.73940000  0.3 -0.0525562232
O  O108  1  0.23540000  0.33310000  0.73630000  0.3 -0.1630766487
O  O109  1  0.26210000  0.37050000  0.71010000  0.3 0.0299489128
O  O110  1  0.14600000  0.33100000  0.72260000  0.3 -0.0525562232
O  O111  1  0.92300000  0.63990000  0.49020000  0.3 -0.2390243963
O  O112  1  0.95070000  0.61140000  0.51620000  0.3 -0.0726031619
O  O113  1  0.88040000  0.74890000  0.73940000  0.3 -0.0525562232
O  O114  1  0.76460000  0.66690000  0.73630000  0.3 -0.1630766487
O  O115  1  0.73790000  0.62950000  0.71010000  0.3 0.0299489128
O  O116  1  0.85400000  0.66900000  0.72260000  0.3 -0.0525562232
O  O117  1  0.86010000  0.42300000  0.99020000  0.3 -0.2390243963
O  O118  1  0.88860000  0.45070000  0.01620000  0.3 -0.0810188342
O  O119  1  0.75110000  0.38040000  0.23940000  0.3 -0.0525562232
O  O120  1  0.83310000  0.26460000  0.23630000  0.3 -0.1630766487
O  O121  1  0.87050000  0.23790000  0.21010000  0.3 0.0299489128
O  O122  1  0.83100000  0.35400000  0.22260000  0.3 -0.0525562232
O  O123  1  0.13990000  0.57700000  0.99020000  0.3 -0.2390243963
O  O124  1  0.11140000  0.54930000  0.01620000  0.3 -0.0726031619
O  O125  1  0.24890000  0.61960000  0.23940000  0.3 -0.0525562232
O  O126  1  0.16690000  0.73540000  0.23630000  0.3 -0.1630766487
O  O127  1  0.12950000  0.76210000  0.21010000  0.3 0.0299489128
O  O128  1  0.16900000  0.64600000  0.22260000  0.3 -0.0525562232
