# DDEC6 charges by PACMAN v1.1 (https://github.com/mtap-research/PACMAN-charge/)
data_2024[Zn][crb]3[FSR]4
_chemical_formula_sum              "Zn16 H96 C96 N64"
_cell_length_a       9.63356
_cell_length_b       24.0923
_cell_length_c       24.4097
_cell_angle_alpha    90
_cell_angle_beta     90
_cell_angle_gamma    90

_symmetry_space_group_name_H-M    "P 1"
_symmetry_Int_Tables_number       1

loop_
  _symmetry_equiv_pos_as_xyz
  'x, y, z'

loop_
  _atom_site_type_symbol
  _atom_site_label
  _atom_site_symmetry_multiplicity
  _atom_site_fract_x
  _atom_site_fract_y
  _atom_site_fract_z
  _atom_site_occupancy
  _atom_site_charge
Zn  Zn1       1.0  0.01227  0.17443  0.50140  1.0000 0.6022583315
Zn  Zn2       1.0  0.51227  0.32557  0.49860  1.0000 0.6022583315
Zn  Zn3       1.0  0.98773  0.67443  0.99860  1.0000 0.6022583315
Zn  Zn4       1.0  0.48773  0.82557  0.00140  1.0000 0.6022583315
Zn  Zn5       1.0  0.98773  0.82557  0.49860  1.0000 0.6022583315
Zn  Zn6       1.0  0.48773  0.67443  0.50140  1.0000 0.6022583315
Zn  Zn7       1.0  0.01227  0.32557  0.00140  1.0000 0.6022583315
Zn  Zn8       1.0  0.51227  0.17443  0.99860  1.0000 0.6022583315
Zn  Zn9       1.0  0.00266  0.00175  0.32392  1.0000 0.6022583315
Zn  Zn10      1.0  0.50266  0.49825  0.67608  1.0000 0.6022583315
Zn  Zn11      1.0  0.99734  0.50175  0.17608  1.0000 0.6022583315
Zn  Zn12      1.0  0.49734  0.99825  0.82392  1.0000 0.6022583315
Zn  Zn13      1.0  0.99734  0.99825  0.67608  1.0000 0.6022583315
Zn  Zn14      1.0  0.49734  0.50175  0.32392  1.0000 0.6022583315
Zn  Zn15      1.0  0.00266  0.49825  0.82392  1.0000 0.6022583315
Zn  Zn16      1.0  0.50266  0.00175  0.17608  1.0000 0.6022583315
H   H1        1.0  0.76100  0.33400  0.41280  1.0000 0.1085581738
H   H2        1.0  0.26100  0.16600  0.58720  1.0000 0.1085581738
H   H3        1.0  0.23900  0.83400  0.08720  1.0000 0.1085581738
H   H4        1.0  0.73900  0.66600  0.91280  1.0000 0.1085581738
H   H5        1.0  0.23900  0.66600  0.58720  1.0000 0.1085581738
H   H6        1.0  0.73900  0.83400  0.41280  1.0000 0.1085581738
H   H7        1.0  0.76100  0.16600  0.91280  1.0000 0.1085581738
H   H8        1.0  0.26100  0.33400  0.08720  1.0000 0.1085581738
H   H9        1.0  0.49900  0.95150  0.29420  1.0000 0.1085581738
H   H10       1.0  0.99900  0.54850  0.70580  1.0000 0.1085581738
H   H11       1.0  0.50100  0.45150  0.20580  1.0000 0.1085581738
H   H12       1.0  0.00100  0.04850  0.79420  1.0000 0.1085581738
H   H13       1.0  0.50100  0.04850  0.70580  1.0000 0.1085581738
H   H14       1.0  0.00100  0.45150  0.29420  1.0000 0.1085581738
H   H15       1.0  0.49900  0.54850  0.79420  1.0000 0.1085581738
H   H16       1.0  0.99900  0.95150  0.20580  1.0000 0.1085581738
H   H17       1.0  0.97000  0.05620  0.43920  1.0000 0.0926707866
H   H18       1.0  0.47000  0.44380  0.56080  1.0000 0.0926707866
H   H19       1.0  0.03000  0.55620  0.06080  1.0000 0.0926707866
H   H20       1.0  0.53000  0.94380  0.93920  1.0000 0.0926707866
H   H21       1.0  0.03000  0.94380  0.56080  1.0000 0.0926707866
H   H22       1.0  0.53000  0.55620  0.43920  1.0000 0.0926707866
H   H23       1.0  0.97000  0.44380  0.93920  1.0000 0.0926707866
H   H24       1.0  0.47000  0.05620  0.06080  1.0000 0.0926707866
H   H25       1.0  0.19800  0.82220  0.39970  1.0000 0.1020592289
H   H26       1.0  0.69800  0.67780  0.60030  1.0000 0.1020592289
H   H27       1.0  0.80200  0.32220  0.10030  1.0000 0.1020592289
H   H28       1.0  0.30200  0.17780  0.89970  1.0000 0.1020592289
H   H29       1.0  0.80200  0.17780  0.60030  1.0000 0.1020592289
H   H30       1.0  0.30200  0.32220  0.39970  1.0000 0.1020592289
H   H31       1.0  0.19800  0.67780  0.89970  1.0000 0.1020592289
H   H32       1.0  0.69800  0.82220  0.10030  1.0000 0.1020592289
H   H33       1.0  0.14100  0.12220  0.30980  1.0000 0.1085581738
H   H34       1.0  0.64100  0.37780  0.69020  1.0000 0.1085581738
H   H35       1.0  0.85900  0.62220  0.19020  1.0000 0.1085581738
H   H36       1.0  0.35900  0.87780  0.80980  1.0000 0.1085581738
H   H37       1.0  0.85900  0.87780  0.69020  1.0000 0.1085581738
H   H38       1.0  0.35900  0.62220  0.30980  1.0000 0.1085581738
H   H39       1.0  0.14100  0.37780  0.80980  1.0000 0.1085581738
H   H40       1.0  0.64100  0.12220  0.19020  1.0000 0.1085581738
H   H41       1.0  0.14000  0.19020  0.38670  1.0000 0.1085581738
H   H42       1.0  0.64000  0.30980  0.61330  1.0000 0.1085581738
H   H43       1.0  0.86000  0.69020  0.11330  1.0000 0.1085581738
H   H44       1.0  0.36000  0.80980  0.88670  1.0000 0.1085581738
H   H45       1.0  0.86000  0.80980  0.61330  1.0000 0.1085581738
H   H46       1.0  0.36000  0.69020  0.38670  1.0000 0.1085581738
H   H47       1.0  0.14000  0.30980  0.88670  1.0000 0.1085581738
H   H48       1.0  0.64000  0.19020  0.11330  1.0000 0.1085581738
H   H49       1.0  0.92900  0.93880  0.43710  1.0000 0.0811192276
H   H50       1.0  0.42900  0.56120  0.56290  1.0000 0.0811192276
H   H51       1.0  0.07100  0.43880  0.06290  1.0000 0.0811192276
H   H52       1.0  0.57100  0.06120  0.93710  1.0000 0.0811192276
H   H53       1.0  0.07100  0.06120  0.56290  1.0000 0.0811192276
H   H54       1.0  0.57100  0.43880  0.43710  1.0000 0.0811192276
H   H55       1.0  0.92900  0.56120  0.93710  1.0000 0.0811192276
H   H56       1.0  0.42900  0.93880  0.06290  1.0000 0.0811192276
H   H57       1.0  0.19400  0.89590  0.32290  1.0000 0.1085581738
H   H58       1.0  0.69400  0.60410  0.67710  1.0000 0.1085581738
H   H59       1.0  0.80600  0.39590  0.17710  1.0000 0.1085581738
H   H60       1.0  0.30600  0.10410  0.82290  1.0000 0.1085581738
H   H61       1.0  0.80600  0.10410  0.67710  1.0000 0.1085581738
H   H62       1.0  0.30600  0.39590  0.32290  1.0000 0.1085581738
H   H63       1.0  0.19400  0.60410  0.82290  1.0000 0.1085581738
H   H64       1.0  0.69400  0.89590  0.17710  1.0000 0.1085581738
H   H65       1.0  0.72000  0.22860  0.53460  1.0000 0.0811192276
H   H66       1.0  0.22000  0.27140  0.46540  1.0000 0.0811192276
H   H67       1.0  0.28000  0.72860  0.96540  1.0000 0.0811192276
H   H68       1.0  0.78000  0.77140  0.03460  1.0000 0.0811192276
H   H69       1.0  0.28000  0.77140  0.46540  1.0000 0.0811192276
H   H70       1.0  0.78000  0.72860  0.53460  1.0000 0.0811192276
H   H71       1.0  0.72000  0.27140  0.03460  1.0000 0.0811192276
H   H72       1.0  0.22000  0.22860  0.96540  1.0000 0.0811192276
H   H73       1.0  0.97100  0.27220  0.41580  1.0000 0.1020592289
H   H74       1.0  0.47100  0.22780  0.58420  1.0000 0.1020592289
H   H75       1.0  0.02900  0.77220  0.08420  1.0000 0.1085581738
H   H76       1.0  0.52900  0.72780  0.91580  1.0000 0.1020592289
H   H77       1.0  0.02900  0.72780  0.58420  1.0000 0.1020592289
H   H78       1.0  0.52900  0.77220  0.41580  1.0000 0.1020592289
H   H79       1.0  0.97100  0.22780  0.91580  1.0000 0.1020592289
H   H80       1.0  0.47100  0.27220  0.08420  1.0000 0.1020592289
H   H81       1.0  0.70900  0.95250  0.35840  1.0000 0.1085581738
H   H82       1.0  0.20900  0.54750  0.64160  1.0000 0.1085581738
H   H83       1.0  0.29100  0.45250  0.14160  1.0000 0.1085581738
H   H84       1.0  0.79100  0.04750  0.85840  1.0000 0.1085581738
H   H85       1.0  0.29100  0.04750  0.64160  1.0000 0.1085581738
H   H86       1.0  0.79100  0.45250  0.35840  1.0000 0.1085581738
H   H87       1.0  0.70900  0.54750  0.85840  1.0000 0.1085581738
H   H88       1.0  0.20900  0.95250  0.14160  1.0000 0.1085581738
H   H89       1.0  0.80000  0.03390  0.22410  1.0000 0.0926707866
H   H90       1.0  0.30000  0.46610  0.77590  1.0000 0.0926707866
H   H91       1.0  0.20000  0.53390  0.27590  1.0000 0.0926707866
H   H92       1.0  0.70000  0.96610  0.72410  1.0000 0.0926707866
H   H93       1.0  0.20000  0.96610  0.77590  1.0000 0.0926707866
H   H94       1.0  0.70000  0.53390  0.22410  1.0000 0.0926707866
H   H95       1.0  0.80000  0.46610  0.72410  1.0000 0.0926707866
H   H96       1.0  0.30000  0.03390  0.27590  1.0000 0.0926707866
C   C1        1.0  0.78100  0.30469  0.43652  1.0000 -0.0597927818
C   C2        1.0  0.28100  0.19531  0.56348  1.0000 -0.0597927818
C   C3        1.0  0.21900  0.80469  0.06348  1.0000 -0.0597927818
C   C4        1.0  0.71900  0.69531  0.93652  1.0000 -0.0597927818
C   C5        1.0  0.21900  0.69531  0.56348  1.0000 -0.0597927818
C   C6        1.0  0.71900  0.80469  0.43652  1.0000 -0.0597927818
C   C7        1.0  0.78100  0.19531  0.93652  1.0000 -0.0597927818
C   C8        1.0  0.28100  0.30469  0.06348  1.0000 -0.0597927818
C   C9        1.0  0.58890  0.96603  0.28968  1.0000 -0.0783050401
C   C10       1.0  0.08890  0.53397  0.71032  1.0000 -0.0783050401
C   C11       1.0  0.41110  0.46603  0.21032  1.0000 -0.0783050401
C   C12       1.0  0.91110  0.03397  0.78968  1.0000 -0.0783050401
C   C13       1.0  0.41110  0.03397  0.71032  1.0000 -0.0783050401
C   C14       1.0  0.91110  0.46603  0.28968  1.0000 -0.0783050401
C   C15       1.0  0.58890  0.53397  0.78968  1.0000 -0.0783050401
C   C16       1.0  0.08890  0.96603  0.21032  1.0000 -0.0783050401
C   C17       1.0  0.01490  0.08049  0.41799  1.0000 0.1280501144
C   C18       1.0  0.51490  0.41951  0.58201  1.0000 0.1280501144
C   C19       1.0  0.98510  0.58049  0.08201  1.0000 0.1280501144
C   C20       1.0  0.48510  0.91951  0.91799  1.0000 0.1280501144
C   C21       1.0  0.98510  0.91951  0.58201  1.0000 0.1280501144
C   C22       1.0  0.48510  0.58049  0.41799  1.0000 0.1280501144
C   C23       1.0  0.01490  0.41951  0.91799  1.0000 0.1280501144
C   C24       1.0  0.51490  0.08049  0.08201  1.0000 0.1280501144
C   C25       1.0  0.14380  0.85586  0.39540  1.0000 -0.0783050401
C   C26       1.0  0.64380  0.64414  0.60460  1.0000 -0.0783050401
C   C27       1.0  0.85620  0.35586  0.10460  1.0000 -0.0783050401
C   C28       1.0  0.35620  0.14414  0.89540  1.0000 -0.0783050401
C   C29       1.0  0.85620  0.14414  0.60460  1.0000 -0.0783050401
C   C30       1.0  0.35620  0.35586  0.39540  1.0000 -0.0783050401
C   C31       1.0  0.14380  0.64414  0.89540  1.0000 -0.0783050401
C   C32       1.0  0.64380  0.85586  0.10460  1.0000 -0.0783050401
C   C33       1.0  0.10520  0.11781  0.34623  1.0000 -0.0703421014
C   C34       1.0  0.60520  0.38219  0.65377  1.0000 -0.0703421014
C   C35       1.0  0.89480  0.61781  0.15377  1.0000 -0.0703421014
C   C36       1.0  0.39480  0.88219  0.84623  1.0000 -0.0703421014
C   C37       1.0  0.89480  0.88219  0.65377  1.0000 -0.0703421014
C   C38       1.0  0.39480  0.61781  0.34623  1.0000 -0.0703421014
C   C39       1.0  0.10520  0.38219  0.84623  1.0000 -0.0703421014
C   C40       1.0  0.60520  0.11781  0.15377  1.0000 -0.0703421014
C   C41       1.0  0.10910  0.15511  0.38788  1.0000 -0.0597927818
C   C42       1.0  0.60910  0.34489  0.61212  1.0000 -0.0597927818
C   C43       1.0  0.89090  0.65511  0.11212  1.0000 -0.0597927818
C   C44       1.0  0.39090  0.84489  0.88788  1.0000 -0.0597927818
C   C45       1.0  0.89090  0.84489  0.61212  1.0000 -0.0597927818
C   C46       1.0  0.39090  0.65511  0.38788  1.0000 -0.0597927818
C   C47       1.0  0.10910  0.34489  0.88788  1.0000 -0.0597927818
C   C48       1.0  0.60910  0.15511  0.11212  1.0000 -0.0597927818
C   C49       1.0  0.99530  0.91864  0.41783  1.0000 0.1085581738
C   C50       1.0  0.49530  0.58136  0.58217  1.0000 0.1085581738
C   C51       1.0  0.00470  0.41864  0.08217  1.0000 0.1085581738
C   C52       1.0  0.50470  0.08136  0.91783  1.0000 0.1085581738
C   C53       1.0  0.00470  0.08136  0.58217  1.0000 0.1085581738
C   C54       1.0  0.50470  0.41864  0.41783  1.0000 0.1085581738
C   C55       1.0  0.99530  0.58136  0.91783  1.0000 0.1085581738
C   C56       1.0  0.49530  0.91864  0.08217  1.0000 0.1085581738
C   C57       1.0  0.14200  0.89516  0.35547  1.0000 -0.0597927818
C   C58       1.0  0.64200  0.60484  0.64453  1.0000 -0.0597927818
C   C59       1.0  0.85800  0.39516  0.14453  1.0000 -0.0597927818
C   C60       1.0  0.35800  0.10484  0.85547  1.0000 -0.0597927818
C   C61       1.0  0.85800  0.10484  0.64453  1.0000 -0.0597927818
C   C62       1.0  0.35800  0.39516  0.35547  1.0000 -0.0597927818
C   C63       1.0  0.14200  0.60484  0.85547  1.0000 -0.0597927818
C   C64       1.0  0.64200  0.89516  0.14453  1.0000 -0.0597927818
C   C65       1.0  0.75590  0.24738  0.50265  1.0000 0.1280501144
C   C66       1.0  0.25590  0.25262  0.49735  1.0000 0.1280501144
C   C67       1.0  0.24410  0.74738  0.99735  1.0000 0.1280501144
C   C68       1.0  0.74410  0.75262  0.00265  1.0000 0.1280501144
C   C69       1.0  0.24410  0.75262  0.49735  1.0000 0.1280501144
C   C70       1.0  0.74410  0.74738  0.50265  1.0000 0.1280501144
C   C71       1.0  0.75590  0.25262  0.00265  1.0000 0.1280501144
C   C72       1.0  0.25590  0.24738  0.99735  1.0000 0.1280501144
C   C73       1.0  0.89470  0.27123  0.43821  1.0000 -0.0703421014
C   C74       1.0  0.39470  0.22877  0.56179  1.0000 -0.0703421014
C   C75       1.0  0.10530  0.77123  0.06179  1.0000 -0.0703421014
C   C76       1.0  0.60530  0.72877  0.93821  1.0000 -0.0703421014
C   C77       1.0  0.10530  0.72877  0.56179  1.0000 -0.0703421014
C   C78       1.0  0.60530  0.77123  0.43821  1.0000 -0.0703421014
C   C79       1.0  0.89470  0.22877  0.93821  1.0000 -0.0703421014
C   C80       1.0  0.39470  0.27123  0.06179  1.0000 -0.0703421014
C   C81       1.0  0.70130  0.96618  0.32339  1.0000 -0.0703421014
C   C82       1.0  0.20130  0.53382  0.67661  1.0000 -0.0703421014
C   C83       1.0  0.29870  0.46618  0.17661  1.0000 -0.0703421014
C   C84       1.0  0.79870  0.03382  0.82339  1.0000 -0.0703421014
C   C85       1.0  0.29870  0.03382  0.67661  1.0000 -0.0703421014
C   C86       1.0  0.79870  0.46618  0.32339  1.0000 -0.0703421014
C   C87       1.0  0.70130  0.53382  0.82339  1.0000 -0.0703421014
C   C88       1.0  0.20130  0.96618  0.17661  1.0000 -0.0703421014
C   C89       1.0  0.75250  0.01233  0.25075  1.0000 0.1219401764
C   C90       1.0  0.25250  0.48767  0.74925  1.0000 0.1219401764
C   C91       1.0  0.24750  0.51233  0.24925  1.0000 0.1219401764
C   C92       1.0  0.74750  0.98767  0.75075  1.0000 0.1219401764
C   C93       1.0  0.24750  0.98767  0.74925  1.0000 0.1219401764
C   C94       1.0  0.74750  0.51233  0.25075  1.0000 0.1219401764
C   C95       1.0  0.75250  0.48767  0.75075  1.0000 0.1219401764
C   C96       1.0  0.25250  0.01233  0.24925  1.0000 0.1219401764
N   N1        1.0  0.04550  0.06982  0.36549  1.0000 -0.3000289282
N   N2        1.0  0.54550  0.43018  0.63451  1.0000 -0.3000289282
N   N3        1.0  0.95450  0.56982  0.13451  1.0000 -0.3000289282
N   N4        1.0  0.45450  0.93018  0.86549  1.0000 -0.3000289282
N   N5        1.0  0.95450  0.93018  0.63451  1.0000 -0.3000289282
N   N6        1.0  0.45450  0.56982  0.36549  1.0000 -0.3000289282
N   N7        1.0  0.04550  0.43018  0.86549  1.0000 -0.3000289282
N   N8        1.0  0.54550  0.06982  0.13451  1.0000 -0.3000289282
N   N9        1.0  0.87910  0.23444  0.48086  1.0000 -0.2913170922
N   N10       1.0  0.37910  0.26556  0.51914  1.0000 -0.2913170922
N   N11       1.0  0.12090  0.73444  0.01914  1.0000 -0.2913170922
N   N12       1.0  0.62090  0.76556  0.98086  1.0000 -0.2913170922
N   N13       1.0  0.12090  0.76556  0.51914  1.0000 -0.2913170922
N   N14       1.0  0.62090  0.73444  0.48086  1.0000 -0.2913170922
N   N15       1.0  0.87910  0.26556  0.98086  1.0000 -0.2913170922
N   N16       1.0  0.37910  0.23444  0.01914  1.0000 -0.2913170922
N   N17       1.0  0.69240  0.28967  0.47785  1.0000 -0.2913170922
N   N18       1.0  0.19240  0.21033  0.52215  1.0000 -0.2913170922
N   N19       1.0  0.30760  0.78967  0.02215  1.0000 -0.2913170922
N   N20       1.0  0.80760  0.71033  0.97785  1.0000 -0.2913170922
N   N21       1.0  0.30760  0.71033  0.52215  1.0000 -0.2913170922
N   N22       1.0  0.80760  0.78967  0.47785  1.0000 -0.2913170922
N   N23       1.0  0.69240  0.21033  0.97785  1.0000 -0.2913170922
N   N24       1.0  0.19240  0.28967  0.02215  1.0000 -0.2913170922
N   N25       1.0  0.04710  0.93525  0.36960  1.0000 -0.2913170922
N   N26       1.0  0.54710  0.56475  0.63040  1.0000 -0.2913170922
N   N27       1.0  0.95290  0.43525  0.13040  1.0000 -0.2913170922
N   N28       1.0  0.45290  0.06475  0.86960  1.0000 -0.2913170922
N   N29       1.0  0.95290  0.06475  0.63040  1.0000 -0.2913170922
N   N30       1.0  0.45290  0.43525  0.36960  1.0000 -0.2913170922
N   N31       1.0  0.04710  0.56475  0.86960  1.0000 -0.2913170922
N   N32       1.0  0.54710  0.93525  0.13040  1.0000 -0.2913170922
N   N33       1.0  0.05130  0.13159  0.43361  1.0000 -0.3000289282
N   N34       1.0  0.55130  0.36841  0.56639  1.0000 -0.3000289282
N   N35       1.0  0.94870  0.63159  0.06639  1.0000 -0.3000289282
N   N36       1.0  0.44870  0.86841  0.93361  1.0000 -0.3000289282
N   N37       1.0  0.94870  0.86841  0.56639  1.0000 -0.3000289282
N   N38       1.0  0.44870  0.63159  0.43361  1.0000 -0.3000289282
N   N39       1.0  0.05130  0.36841  0.93361  1.0000 -0.3000289282
N   N40       1.0  0.55130  0.13159  0.06639  1.0000 -0.3000289282
N   N41       1.0  0.04930  0.87056  0.43525  1.0000 -0.2913170922
N   N42       1.0  0.54930  0.62944  0.56475  1.0000 -0.2913170922
N   N43       1.0  0.95070  0.37056  0.06475  1.0000 -0.2913170922
N   N44       1.0  0.45070  0.12944  0.93525  1.0000 -0.2913170922
N   N45       1.0  0.95070  0.12944  0.56475  1.0000 -0.2913170922
N   N46       1.0  0.45070  0.37056  0.43525  1.0000 -0.2913170922
N   N47       1.0  0.04930  0.62944  0.93525  1.0000 -0.2913170922
N   N48       1.0  0.54930  0.87056  0.06475  1.0000 -0.2913170922
N   N49       1.0  0.12130  0.99576  0.25698  1.0000 -0.2913170922
N   N50       1.0  0.62130  0.50424  0.74302  1.0000 -0.2913170922
N   N51       1.0  0.87870  0.49576  0.24302  1.0000 -0.2913170922
N   N52       1.0  0.37870  0.00424  0.75698  1.0000 -0.2913170922
N   N53       1.0  0.87870  0.00424  0.74302  1.0000 -0.2913170922
N   N54       1.0  0.37870  0.49576  0.25698  1.0000 -0.2913170922
N   N55       1.0  0.12130  0.50424  0.75698  1.0000 -0.2913170922
N   N56       1.0  0.62130  0.99576  0.24302  1.0000 -0.2913170922
N   N57       1.0  0.80620  0.99554  0.29854  1.0000 -0.2913170922
N   N58       1.0  0.30620  0.50446  0.70146  1.0000 -0.2913170922
N   N59       1.0  0.19380  0.49554  0.20146  1.0000 -0.2913170922
N   N60       1.0  0.69380  0.00446  0.79854  1.0000 -0.2913170922
N   N61       1.0  0.19380  0.00446  0.70146  1.0000 -0.2913170922
N   N62       1.0  0.69380  0.49554  0.29854  1.0000 -0.2913170922
N   N63       1.0  0.80620  0.50446  0.79854  1.0000 -0.2913170922
N   N64       1.0  0.30620  0.99554  0.20146  1.0000 -0.2913170922
