# DDEC6 charges by PACMAN v1.1 (https://github.com/mtap-research/PACMAN-charge/)
data_ic101935f_si_002_2_FSR_pacman
_symmetry_space_group_name_H-M   'P 1'
_cell_length_a   27.30000000
_cell_length_b   27.30000000
_cell_length_c   27.30000000
_cell_angle_alpha   90.00000000
_cell_angle_beta   90.00000000
_cell_angle_gamma   90.00000000
_symmetry_Int_Tables_number   1
_chemical_formula_structural   Zn4H36C54N6O13
_chemical_formula_sum   'Zn16 H144.0 C216 N24 O52'
_cell_volume   20346.41700000
_cell_formula_units_Z   4
loop_
 _symmetry_equiv_pos_site_id
 _symmetry_equiv_pos_as_xyz
  1  'x, y, z'
loop_
 _atom_site_type_symbol
 _atom_site_label
 _atom_site_symmetry_multiplicity
 _atom_site_fract_x
 _atom_site_fract_y
 _atom_site_fract_z
 _atom_site_occupancy
 _atom_site_charge
Zn  Zn1  1  0.54006000  0.95994000  0.04006000  0.5 0.4858452493
Zn  Zn2  1  0.04006000  0.54006000  0.95994000  0.5 0.4792660811
Zn  Zn3  1  0.95994000  0.04006000  0.54006000  0.5 0.4858452493
Zn  Zn4  1  0.45994000  0.45994000  0.45994000  0.5 0.4792660811
Zn  Zn5  1  0.45994000  0.04006000  0.95994000  0.5 0.4792660811
Zn  Zn6  1  0.95994000  0.45994000  0.04006000  0.5 0.4858452493
Zn  Zn7  1  0.04006000  0.95994000  0.45994000  0.5 0.4792660811
Zn  Zn8  1  0.54006000  0.54006000  0.54006000  0.5 0.4858452493
Zn  Zn9  1  0.48907000  0.93034000  0.98552000  0.5 0.4792660811
Zn  Zn10  1  0.98552000  0.48907000  0.93034000  0.5 0.4792660811
Zn  Zn11  1  0.93034000  0.98552000  0.48907000  0.5 0.4792660811
Zn  Zn12  1  0.56966000  0.01448000  0.98907000  0.5 0.4792660811
Zn  Zn13  1  0.48552000  0.01093000  0.06966000  0.5 0.4792660811
Zn  Zn14  1  0.06966000  0.48552000  0.01093000  0.5 0.4792660811
Zn  Zn15  1  0.51448000  0.51093000  0.43034000  0.5 0.4792660811
Zn  Zn16  1  0.01448000  0.98907000  0.56966000  0.5 0.4792660811
Zn  Zn17  1  0.43034000  0.51448000  0.51093000  0.5 0.4792660811
Zn  Zn18  1  0.01093000  0.06966000  0.48552000  0.5 0.4792660811
Zn  Zn19  1  0.98907000  0.56966000  0.01448000  0.5 0.4792660811
Zn  Zn20  1  0.51093000  0.43034000  0.51448000  0.5 0.4792660811
Zn  Zn21  1  0.51093000  0.06966000  0.01448000  0.5 0.4792660811
Zn  Zn22  1  0.01448000  0.51093000  0.06966000  0.5 0.4792660811
Zn  Zn23  1  0.06966000  0.01448000  0.51093000  0.5 0.4792660811
Zn  Zn24  1  0.43034000  0.98552000  0.01093000  0.5 0.4792660811
Zn  Zn25  1  0.51448000  0.98907000  0.93034000  0.5 0.4792660811
Zn  Zn26  1  0.93034000  0.51448000  0.98907000  0.5 0.4792660811
Zn  Zn27  1  0.48552000  0.48907000  0.56966000  0.5 0.4792660811
Zn  Zn28  1  0.98552000  0.01093000  0.43034000  0.5 0.4792660811
Zn  Zn29  1  0.56966000  0.48552000  0.48907000  0.5 0.4792660811
Zn  Zn30  1  0.98907000  0.93034000  0.51448000  0.5 0.4792660811
Zn  Zn31  1  0.01093000  0.43034000  0.98552000  0.5 0.4792660811
Zn  Zn32  1  0.48907000  0.56966000  0.48552000  0.5 0.4792660811
H  H1  1  0.39860000  0.75600000  0.22930000  1.0 0.259781326
H  H2  1  0.22930000  0.39860000  0.75600000  1.0 0.259781326
H  H3  1  0.75600000  0.22930000  0.39860000  1.0 0.259781326
H  H4  1  0.74400000  0.77070000  0.89860000  1.0 0.259781326
H  H5  1  0.72930000  0.10140000  0.24400000  1.0 0.259781326
H  H6  1  0.24400000  0.72930000  0.10140000  1.0 0.259781326
H  H7  1  0.27070000  0.60140000  0.25600000  1.0 0.259781326
H  H8  1  0.77070000  0.89860000  0.74400000  1.0 0.259781326
H  H9  1  0.25600000  0.27070000  0.60140000  1.0 0.259781326
H  H10  1  0.10140000  0.24400000  0.72930000  1.0 0.259781326
H  H11  1  0.89860000  0.74400000  0.77070000  1.0 0.259781326
H  H12  1  0.60140000  0.25600000  0.27070000  1.0 0.259781326
H  H13  1  0.60140000  0.24400000  0.77070000  1.0 0.259781326
H  H14  1  0.77070000  0.60140000  0.24400000  1.0 0.259781326
H  H15  1  0.24400000  0.77070000  0.60140000  1.0 0.259781326
H  H16  1  0.25600000  0.22930000  0.10140000  1.0 0.259781326
H  H17  1  0.27070000  0.89860000  0.75600000  1.0 0.259781326
H  H18  1  0.75600000  0.27070000  0.89860000  1.0 0.259781326
H  H19  1  0.72930000  0.39860000  0.74400000  1.0 0.259781326
H  H20  1  0.22930000  0.10140000  0.25600000  1.0 0.259781326
H  H21  1  0.74400000  0.72930000  0.39860000  1.0 0.259781326
H  H22  1  0.89860000  0.75600000  0.27070000  1.0 0.259781326
H  H23  1  0.10140000  0.25600000  0.22930000  1.0 0.259781326
H  H24  1  0.39860000  0.74400000  0.72930000  1.0 0.259781326
H  H25  1  0.30890000  0.75410000  0.13650000  1.0 0.1446113551
H  H26  1  0.13650000  0.30890000  0.75410000  1.0 0.1459767872
H  H27  1  0.75410000  0.13650000  0.30890000  1.0 0.1446113551
H  H28  1  0.74590000  0.86350000  0.80890000  1.0 0.1459767872
H  H29  1  0.63650000  0.19110000  0.24590000  1.0 0.1446113551
H  H30  1  0.24590000  0.63650000  0.19110000  1.0 0.1446113551
H  H31  1  0.36350000  0.69110000  0.25410000  1.0 0.1446113551
H  H32  1  0.86350000  0.80890000  0.74590000  1.0 0.1459767872
H  H33  1  0.25410000  0.36350000  0.69110000  1.0 0.1459767872
H  H34  1  0.19110000  0.24590000  0.63650000  1.0 0.1459767872
H  H35  1  0.80890000  0.74590000  0.86350000  1.0 0.1459767872
H  H36  1  0.69110000  0.25410000  0.36350000  1.0 0.1459767872
H  H37  1  0.69110000  0.24590000  0.86350000  1.0 0.1459767872
H  H38  1  0.86350000  0.69110000  0.24590000  1.0 0.1446113551
H  H39  1  0.24590000  0.86350000  0.69110000  1.0 0.1459767872
H  H40  1  0.25410000  0.13650000  0.19110000  1.0 0.1446113551
H  H41  1  0.36350000  0.80890000  0.75410000  1.0 0.1459767872
H  H42  1  0.75410000  0.36350000  0.80890000  1.0 0.1459767872
H  H43  1  0.63650000  0.30890000  0.74590000  1.0 0.1459767872
H  H44  1  0.13650000  0.19110000  0.25410000  1.0 0.1446113551
H  H45  1  0.74590000  0.63650000  0.30890000  1.0 0.1459767872
H  H46  1  0.80890000  0.75410000  0.36350000  1.0 0.1459767872
H  H47  1  0.19110000  0.25410000  0.13650000  1.0 0.1446113551
H  H48  1  0.30890000  0.74590000  0.63650000  1.0 0.1459767872
H  H49  1  0.50000000  0.84710000  0.13990000  0.483 0.1102453661
H  H50  1  0.13990000  0.50000000  0.84710000  0.483 0.1102453661
H  H51  1  0.84710000  0.13990000  0.50000000  0.483 0.1102453661
H  H52  1  0.65290000  0.86010000  0.00000000  0.483 0.1102453661
H  H53  1  0.63990000  0.00000000  0.15290000  0.483 0.1102453661
H  H54  1  0.15290000  0.63990000  0.00000000  0.483 0.1102453661
H  H55  1  0.36010000  0.50000000  0.34710000  0.483 0.1102453661
H  H56  1  0.86010000  0.00000000  0.65290000  0.483 0.1102453661
H  H57  1  0.34710000  0.36010000  0.50000000  0.483 0.1102453661
H  H58  1  0.00000000  0.15290000  0.63990000  0.483 0.1102453661
H  H59  1  0.00000000  0.65290000  0.86010000  0.483 0.1102453661
H  H60  1  0.50000000  0.34710000  0.36010000  0.483 0.1102453661
H  H61  1  0.50000000  0.15290000  0.86010000  0.483 0.1102453661
H  H62  1  0.86010000  0.50000000  0.15290000  0.483 0.1102453661
H  H63  1  0.15290000  0.86010000  0.50000000  0.483 0.1102453661
H  H64  1  0.34710000  0.13990000  0.00000000  0.483 0.1102453661
H  H65  1  0.36010000  0.00000000  0.84710000  0.483 0.1102453661
H  H66  1  0.84710000  0.36010000  0.00000000  0.483 0.1102453661
H  H67  1  0.63990000  0.50000000  0.65290000  0.483 0.1102453661
H  H68  1  0.13990000  0.00000000  0.34710000  0.483 0.1102453661
H  H69  1  0.65290000  0.63990000  0.50000000  0.483 0.1102453661
H  H70  1  0.00000000  0.84710000  0.36010000  0.483 0.1102453661
H  H71  1  0.00000000  0.34710000  0.13990000  0.483 0.1102453661
H  H72  1  0.50000000  0.65290000  0.63990000  0.483 0.1102453661
H  H73  1  0.46440000  0.78490000  0.18600000  0.483 0.0911389847
H  H74  1  0.18600000  0.46440000  0.78490000  0.483 0.0911389847
H  H75  1  0.78490000  0.18600000  0.46440000  0.483 0.0911389847
H  H76  1  0.71510000  0.81400000  0.96440000  0.483 0.0911389847
H  H77  1  0.68600000  0.03560000  0.21510000  0.483 0.0911389847
H  H78  1  0.21510000  0.68600000  0.03560000  0.483 0.0911389847
H  H79  1  0.31400000  0.53560000  0.28490000  0.483 0.0911389847
H  H80  1  0.81400000  0.96440000  0.71510000  0.483 0.0911389847
H  H81  1  0.28490000  0.31400000  0.53560000  0.483 0.0911389847
H  H82  1  0.03560000  0.21510000  0.68600000  0.483 0.0911389847
H  H83  1  0.96440000  0.71510000  0.81400000  0.483 0.0911389847
H  H84  1  0.53560000  0.28490000  0.31400000  0.483 0.0911389847
H  H85  1  0.53560000  0.21510000  0.81400000  0.483 0.0911389847
H  H86  1  0.81400000  0.53560000  0.21510000  0.483 0.0911389847
H  H87  1  0.21510000  0.81400000  0.53560000  0.483 0.0911389847
H  H88  1  0.28490000  0.18600000  0.03560000  0.483 0.0911389847
H  H89  1  0.31400000  0.96440000  0.78490000  0.483 0.0911389847
H  H90  1  0.78490000  0.31400000  0.96440000  0.483 0.0911389847
H  H91  1  0.68600000  0.46440000  0.71510000  0.483 0.0911389847
H  H92  1  0.18600000  0.03560000  0.28490000  0.483 0.0911389847
H  H93  1  0.71510000  0.68600000  0.46440000  0.483 0.0911389847
H  H94  1  0.96440000  0.78490000  0.31400000  0.483 0.0911389847
H  H95  1  0.03560000  0.28490000  0.18600000  0.483 0.0911389847
H  H96  1  0.46440000  0.71510000  0.68600000  0.483 0.0911389847
H  H97  1  0.33230000  0.81860000  0.14340000  0.483 0.099700848
H  H98  1  0.14340000  0.33230000  0.81860000  0.483 0.099700848
H  H99  1  0.81860000  0.14340000  0.33230000  0.483 0.099700848
H  H100  1  0.68140000  0.85660000  0.83230000  0.483 0.099700848
H  H101  1  0.64340000  0.16770000  0.18140000  0.483 0.099700848
H  H102  1  0.18140000  0.64340000  0.16770000  0.483 0.099700848
H  H103  1  0.35660000  0.66770000  0.31860000  0.483 0.099700848
H  H104  1  0.85660000  0.83230000  0.68140000  0.483 0.099700848
H  H105  1  0.31860000  0.35660000  0.66770000  0.483 0.099700848
H  H106  1  0.16770000  0.18140000  0.64340000  0.483 0.099700848
H  H107  1  0.83230000  0.68140000  0.85660000  0.483 0.099700848
H  H108  1  0.66770000  0.31860000  0.35660000  0.483 0.099700848
H  H109  1  0.66770000  0.18140000  0.85660000  0.483 0.099700848
H  H110  1  0.85660000  0.66770000  0.18140000  0.483 0.099700848
H  H111  1  0.18140000  0.85660000  0.66770000  0.483 0.099700848
H  H112  1  0.31860000  0.14340000  0.16770000  0.483 0.099700848
H  H113  1  0.35660000  0.83230000  0.81860000  0.483 0.099700848
H  H114  1  0.81860000  0.35660000  0.83230000  0.483 0.099700848
H  H115  1  0.64340000  0.33230000  0.68140000  0.483 0.099700848
H  H116  1  0.14340000  0.16770000  0.31860000  0.483 0.099700848
H  H117  1  0.68140000  0.64340000  0.33230000  0.483 0.099700848
H  H118  1  0.83230000  0.81860000  0.35660000  0.483 0.099700848
H  H119  1  0.16770000  0.31860000  0.14340000  0.483 0.099700848
H  H120  1  0.33230000  0.68140000  0.64340000  0.483 0.099700848
H  H121  1  0.36390000  0.88080000  0.09540000  0.483 0.1155651189
H  H122  1  0.09540000  0.36390000  0.88080000  0.483 0.1155651189
H  H123  1  0.88080000  0.09540000  0.36390000  0.483 0.1155651189
H  H124  1  0.61920000  0.90460000  0.86390000  0.483 0.1155651189
H  H125  1  0.59540000  0.13610000  0.11920000  0.483 0.1155651189
H  H126  1  0.11920000  0.59540000  0.13610000  0.483 0.1102453661
H  H127  1  0.40460000  0.63610000  0.38080000  0.483 0.1102453661
H  H128  1  0.90460000  0.86390000  0.61920000  0.483 0.1155651189
H  H129  1  0.38080000  0.40460000  0.63610000  0.483 0.1102453661
H  H130  1  0.13610000  0.11920000  0.59540000  0.483 0.1155651189
H  H131  1  0.86390000  0.61920000  0.90460000  0.483 0.1155651189
H  H132  1  0.63610000  0.38080000  0.40460000  0.483 0.1102453661
H  H133  1  0.63610000  0.11920000  0.90460000  0.483 0.1155651189
H  H134  1  0.90460000  0.63610000  0.11920000  0.483 0.1155651189
H  H135  1  0.11920000  0.90460000  0.63610000  0.483 0.1155651189
H  H136  1  0.38080000  0.09540000  0.13610000  0.483 0.1155651189
H  H137  1  0.40460000  0.86390000  0.88080000  0.483 0.1155651189
H  H138  1  0.88080000  0.40460000  0.86390000  0.483 0.1155651189
H  H139  1  0.59540000  0.36390000  0.61920000  0.483 0.1155651189
H  H140  1  0.09540000  0.13610000  0.38080000  0.483 0.1102453661
H  H141  1  0.61920000  0.59540000  0.36390000  0.483 0.1155651189
H  H142  1  0.86390000  0.88080000  0.40460000  0.483 0.1155651189
H  H143  1  0.13610000  0.38080000  0.09540000  0.483 0.1102453661
H  H144  1  0.36390000  0.61920000  0.59540000  0.483 0.1155651189
H  H145  1  0.44770000  0.90630000  0.17970000  0.517 0.1102453661
H  H146  1  0.17970000  0.44770000  0.90630000  0.517 0.1102453661
H  H147  1  0.90630000  0.17970000  0.44770000  0.517 0.1102453661
H  H148  1  0.59370000  0.82030000  0.94770000  0.517 0.1102453661
H  H149  1  0.67970000  0.05230000  0.09370000  0.517 0.1102453661
H  H150  1  0.09370000  0.67970000  0.05230000  0.517 0.1102453661
H  H151  1  0.32030000  0.55230000  0.40630000  0.517 0.1102453661
H  H152  1  0.82030000  0.94770000  0.59370000  0.517 0.1102453661
H  H153  1  0.40630000  0.32030000  0.55230000  0.517 0.1102453661
H  H154  1  0.05230000  0.09370000  0.67970000  0.517 0.1102453661
H  H155  1  0.94770000  0.59370000  0.82030000  0.517 0.1102453661
H  H156  1  0.55230000  0.40630000  0.32030000  0.517 0.1102453661
H  H157  1  0.55230000  0.09370000  0.82030000  0.517 0.1102453661
H  H158  1  0.82030000  0.55230000  0.09370000  0.517 0.1102453661
H  H159  1  0.09370000  0.82030000  0.55230000  0.517 0.1102453661
H  H160  1  0.40630000  0.17970000  0.05230000  0.517 0.1102453661
H  H161  1  0.32030000  0.94770000  0.90630000  0.517 0.1102453661
H  H162  1  0.90630000  0.32030000  0.94770000  0.517 0.1102453661
H  H163  1  0.67970000  0.44770000  0.59370000  0.517 0.1102453661
H  H164  1  0.17970000  0.05230000  0.40630000  0.517 0.1102453661
H  H165  1  0.59370000  0.67970000  0.44770000  0.517 0.1102453661
H  H166  1  0.94770000  0.90630000  0.32030000  0.517 0.1102453661
H  H167  1  0.05230000  0.40630000  0.17970000  0.517 0.1102453661
H  H168  1  0.44770000  0.59370000  0.67970000  0.517 0.1102453661
H  H169  1  0.41200000  0.84310000  0.22640000  0.517 0.0911389847
H  H170  1  0.22640000  0.41200000  0.84310000  0.517 0.0911389847
H  H171  1  0.84310000  0.22640000  0.41200000  0.517 0.0911389847
H  H172  1  0.65690000  0.77360000  0.91200000  0.517 0.0911389847
H  H173  1  0.72640000  0.08800000  0.15690000  0.517 0.0911389847
H  H174  1  0.15690000  0.72640000  0.08800000  0.517 0.0911389847
H  H175  1  0.27360000  0.58800000  0.34310000  0.517 0.0911389847
H  H176  1  0.77360000  0.91200000  0.65690000  0.517 0.0911389847
H  H177  1  0.34310000  0.27360000  0.58800000  0.517 0.0911389847
H  H178  1  0.08800000  0.15690000  0.72640000  0.517 0.0911389847
H  H179  1  0.91200000  0.65690000  0.77360000  0.517 0.0911389847
H  H180  1  0.58800000  0.34310000  0.27360000  0.517 0.0911389847
H  H181  1  0.58800000  0.15690000  0.77360000  0.517 0.0911389847
H  H182  1  0.77360000  0.58800000  0.15690000  0.517 0.0911389847
H  H183  1  0.15690000  0.77360000  0.58800000  0.517 0.0911389847
H  H184  1  0.34310000  0.22640000  0.08800000  0.517 0.0911389847
H  H185  1  0.27360000  0.91200000  0.84310000  0.517 0.0911389847
H  H186  1  0.84310000  0.27360000  0.91200000  0.517 0.0911389847
H  H187  1  0.72640000  0.41200000  0.65690000  0.517 0.0911389847
H  H188  1  0.22640000  0.08800000  0.34310000  0.517 0.0911389847
H  H189  1  0.65690000  0.72640000  0.41200000  0.517 0.0911389847
H  H190  1  0.91200000  0.84310000  0.27360000  0.517 0.0911389847
H  H191  1  0.08800000  0.34310000  0.22640000  0.517 0.0911389847
H  H192  1  0.41200000  0.65690000  0.72640000  0.517 0.0911389847
H  H193  1  0.41150000  0.82640000  0.06180000  0.517 0.1102453661
H  H194  1  0.06180000  0.41150000  0.82640000  0.517 0.1102453661
H  H195  1  0.82640000  0.06180000  0.41150000  0.517 0.1102453661
H  H196  1  0.67360000  0.93820000  0.91150000  0.517 0.1102453661
H  H197  1  0.56180000  0.08850000  0.17360000  0.517 0.1102453661
H  H198  1  0.17360000  0.56180000  0.08850000  0.517 0.1102453661
H  H199  1  0.43820000  0.58850000  0.32640000  0.517 0.1102453661
H  H200  1  0.93820000  0.91150000  0.67360000  0.517 0.1102453661
H  H201  1  0.32640000  0.43820000  0.58850000  0.517 0.1102453661
H  H202  1  0.08850000  0.17360000  0.56180000  0.517 0.1102453661
H  H203  1  0.91150000  0.67360000  0.93820000  0.517 0.1102453661
H  H204  1  0.58850000  0.32640000  0.43820000  0.517 0.1102453661
H  H205  1  0.58850000  0.17360000  0.93820000  0.517 0.1102453661
H  H206  1  0.93820000  0.58850000  0.17360000  0.517 0.1102453661
H  H207  1  0.17360000  0.93820000  0.58850000  0.517 0.1102453661
H  H208  1  0.32640000  0.06180000  0.08850000  0.517 0.1102453661
H  H209  1  0.43820000  0.91150000  0.82640000  0.517 0.1102453661
H  H210  1  0.82640000  0.43820000  0.91150000  0.517 0.1102453661
H  H211  1  0.56180000  0.41150000  0.67360000  0.517 0.1102453661
H  H212  1  0.06180000  0.08850000  0.32640000  0.517 0.1102453661
H  H213  1  0.67360000  0.56180000  0.41150000  0.517 0.1102453661
H  H214  1  0.91150000  0.82640000  0.43820000  0.517 0.1102453661
H  H215  1  0.08850000  0.32640000  0.06180000  0.517 0.1102453661
H  H216  1  0.41150000  0.67360000  0.56180000  0.517 0.1102453661
H  H217  1  0.37990000  0.76600000  0.10940000  0.517 0.099700848
H  H218  1  0.10940000  0.37990000  0.76600000  0.517 0.099700848
H  H219  1  0.76600000  0.10940000  0.37990000  0.517 0.099700848
H  H220  1  0.73400000  0.89060000  0.87990000  0.517 0.099700848
H  H221  1  0.60940000  0.12010000  0.23400000  0.517 0.099700848
H  H222  1  0.23400000  0.60940000  0.12010000  0.517 0.099700848
H  H223  1  0.39060000  0.62010000  0.26600000  0.517 0.099700848
H  H224  1  0.89060000  0.87990000  0.73400000  0.517 0.099700848
H  H225  1  0.26600000  0.39060000  0.62010000  0.517 0.099700848
H  H226  1  0.12010000  0.23400000  0.60940000  0.517 0.099700848
H  H227  1  0.87990000  0.73400000  0.89060000  0.517 0.099700848
H  H228  1  0.62010000  0.26600000  0.39060000  0.517 0.099700848
H  H229  1  0.62010000  0.23400000  0.89060000  0.517 0.099700848
H  H230  1  0.89060000  0.62010000  0.23400000  0.517 0.099700848
H  H231  1  0.23400000  0.89060000  0.62010000  0.517 0.099700848
H  H232  1  0.26600000  0.10940000  0.12010000  0.517 0.099700848
H  H233  1  0.39060000  0.87990000  0.76600000  0.517 0.099700848
H  H234  1  0.76600000  0.39060000  0.87990000  0.517 0.099700848
H  H235  1  0.60940000  0.37990000  0.73400000  0.517 0.099700848
H  H236  1  0.10940000  0.12010000  0.26600000  0.517 0.099700848
H  H237  1  0.73400000  0.60940000  0.37990000  0.517 0.099700848
H  H238  1  0.87990000  0.76600000  0.39060000  0.517 0.099700848
H  H239  1  0.12010000  0.26600000  0.10940000  0.517 0.099700848
H  H240  1  0.37990000  0.73400000  0.60940000  0.517 0.099700848
C  C1  1  0.30710000  0.72960000  0.16060000  1.0 -0.3196875774
C  C2  1  0.16060000  0.30710000  0.72960000  1.0 -0.3196875774
C  C3  1  0.72960000  0.16060000  0.30710000  1.0 -0.3196875774
C  C4  1  0.77040000  0.83940000  0.80710000  1.0 -0.3196875774
C  C5  1  0.66060000  0.19290000  0.27040000  1.0 -0.3196875774
C  C6  1  0.27040000  0.66060000  0.19290000  1.0 -0.3196875774
C  C7  1  0.33940000  0.69290000  0.22960000  1.0 -0.3196875774
C  C8  1  0.83940000  0.80710000  0.77040000  1.0 -0.3196875774
C  C9  1  0.22960000  0.33940000  0.69290000  1.0 -0.3196875774
C  C10  1  0.19290000  0.27040000  0.66060000  1.0 -0.3196875774
C  C11  1  0.80710000  0.77040000  0.83940000  1.0 -0.3196875774
C  C12  1  0.69290000  0.22960000  0.33940000  1.0 -0.3196875774
C  C13  1  0.69290000  0.27040000  0.83940000  1.0 -0.3196875774
C  C14  1  0.83940000  0.69290000  0.27040000  1.0 -0.3196875774
C  C15  1  0.27040000  0.83940000  0.69290000  1.0 -0.3196875774
C  C16  1  0.22960000  0.16060000  0.19290000  1.0 -0.3196875774
C  C17  1  0.33940000  0.80710000  0.72960000  1.0 -0.3196875774
C  C18  1  0.72960000  0.33940000  0.80710000  1.0 -0.3196875774
C  C19  1  0.66060000  0.30710000  0.77040000  1.0 -0.3196875774
C  C20  1  0.16060000  0.19290000  0.22960000  1.0 -0.3196875774
C  C21  1  0.77040000  0.66060000  0.30710000  1.0 -0.3196875774
C  C22  1  0.80710000  0.72960000  0.33940000  1.0 -0.3196875774
C  C23  1  0.19290000  0.22960000  0.16060000  1.0 -0.3196875774
C  C24  1  0.30710000  0.77040000  0.66060000  1.0 -0.3196875774
C  C25  1  0.45620000  0.90960000  0.08100000  1.0 0.3774878533
C  C26  1  0.08100000  0.45620000  0.90960000  1.0 0.3774878533
C  C27  1  0.90960000  0.08100000  0.45620000  1.0 0.3774878533
C  C28  1  0.59040000  0.91900000  0.95620000  1.0 0.3774878533
C  C29  1  0.58100000  0.04380000  0.09040000  1.0 0.3774878533
C  C30  1  0.09040000  0.58100000  0.04380000  1.0 0.3774878533
C  C31  1  0.41900000  0.54380000  0.40960000  1.0 0.3774878533
C  C32  1  0.91900000  0.95620000  0.59040000  1.0 0.3774878533
C  C33  1  0.40960000  0.41900000  0.54380000  1.0 0.3774878533
C  C34  1  0.04380000  0.09040000  0.58100000  1.0 0.3774878533
C  C35  1  0.95620000  0.59040000  0.91900000  1.0 0.3774878533
C  C36  1  0.54380000  0.40960000  0.41900000  1.0 0.3774878533
C  C37  1  0.54380000  0.09040000  0.91900000  1.0 0.3774878533
C  C38  1  0.91900000  0.54380000  0.09040000  1.0 0.3774878533
C  C39  1  0.09040000  0.91900000  0.54380000  1.0 0.3774878533
C  C40  1  0.40960000  0.08100000  0.04380000  1.0 0.3774878533
C  C41  1  0.41900000  0.95620000  0.90960000  1.0 0.3774878533
C  C42  1  0.90960000  0.41900000  0.95620000  1.0 0.3774878533
C  C43  1  0.58100000  0.45620000  0.59040000  1.0 0.3774878533
C  C44  1  0.08100000  0.04380000  0.40960000  1.0 0.3774878533
C  C45  1  0.59040000  0.58100000  0.45620000  1.0 0.3774878533
C  C46  1  0.95620000  0.90960000  0.41900000  1.0 0.3774878533
C  C47  1  0.04380000  0.40960000  0.08100000  1.0 0.3774878533
C  C48  1  0.45620000  0.59040000  0.58100000  1.0 0.3774878533
C  C49  1  0.43340000  0.87050000  0.11370000  1.0 -0.0211683913
C  C50  1  0.11370000  0.43340000  0.87050000  1.0 -0.0211683913
C  C51  1  0.87050000  0.11370000  0.43340000  1.0 -0.0211683913
C  C52  1  0.62950000  0.88630000  0.93340000  1.0 -0.0211683913
C  C53  1  0.61370000  0.06660000  0.12950000  1.0 -0.0211683913
C  C54  1  0.12950000  0.61370000  0.06660000  1.0 -0.0211683913
C  C55  1  0.38630000  0.56660000  0.37050000  1.0 -0.0211683913
C  C56  1  0.88630000  0.93340000  0.62950000  1.0 -0.0211683913
C  C57  1  0.37050000  0.38630000  0.56660000  1.0 -0.0211683913
C  C58  1  0.06660000  0.12950000  0.61370000  1.0 -0.0211683913
C  C59  1  0.93340000  0.62950000  0.88630000  1.0 -0.0211683913
C  C60  1  0.56660000  0.37050000  0.38630000  1.0 -0.0211683913
C  C61  1  0.56660000  0.12950000  0.88630000  1.0 -0.0211683913
C  C62  1  0.88630000  0.56660000  0.12950000  1.0 -0.0211683913
C  C63  1  0.12950000  0.88630000  0.56660000  1.0 -0.0211683913
C  C64  1  0.37050000  0.11370000  0.06660000  1.0 -0.0211683913
C  C65  1  0.38630000  0.93340000  0.87050000  1.0 -0.0211683913
C  C66  1  0.87050000  0.38630000  0.93340000  1.0 -0.0211683913
C  C67  1  0.61370000  0.43340000  0.62950000  1.0 -0.0211683913
C  C68  1  0.11370000  0.06660000  0.37050000  1.0 -0.0211683913
C  C69  1  0.62950000  0.61370000  0.43340000  1.0 -0.0211683913
C  C70  1  0.93340000  0.87050000  0.38630000  1.0 -0.0211683913
C  C71  1  0.06660000  0.37050000  0.11370000  1.0 -0.0211683913
C  C72  1  0.43340000  0.62950000  0.61370000  1.0 -0.0211683913
C  C73  1  0.39340000  0.79620000  0.17170000  1.0 0.099700848
C  C74  1  0.17170000  0.39340000  0.79620000  1.0 0.099700848
C  C75  1  0.79620000  0.17170000  0.39340000  1.0 0.099700848
C  C76  1  0.70380000  0.82830000  0.89340000  1.0 0.099700848
C  C77  1  0.67170000  0.10660000  0.20380000  1.0 0.099700848
C  C78  1  0.20380000  0.67170000  0.10660000  1.0 0.099700848
C  C79  1  0.32830000  0.60660000  0.29620000  1.0 0.099700848
C  C80  1  0.82830000  0.89340000  0.70380000  1.0 0.099700848
C  C81  1  0.29620000  0.32830000  0.60660000  1.0 0.099700848
C  C82  1  0.10660000  0.20380000  0.67170000  1.0 0.099700848
C  C83  1  0.89340000  0.70380000  0.82830000  1.0 0.099700848
C  C84  1  0.60660000  0.29620000  0.32830000  1.0 0.099700848
C  C85  1  0.60660000  0.20380000  0.82830000  1.0 0.099700848
C  C86  1  0.82830000  0.60660000  0.20380000  1.0 0.099700848
C  C87  1  0.20380000  0.82830000  0.60660000  1.0 0.099700848
C  C88  1  0.29620000  0.17170000  0.10660000  1.0 0.099700848
C  C89  1  0.32830000  0.89340000  0.79620000  1.0 0.099700848
C  C90  1  0.79620000  0.32830000  0.89340000  1.0 0.099700848
C  C91  1  0.67170000  0.39340000  0.70380000  1.0 0.099700848
C  C92  1  0.17170000  0.10660000  0.29620000  1.0 0.099700848
C  C93  1  0.70380000  0.67170000  0.39340000  1.0 0.099700848
C  C94  1  0.89340000  0.79620000  0.32830000  1.0 0.099700848
C  C95  1  0.10660000  0.29620000  0.17170000  1.0 0.099700848
C  C96  1  0.39340000  0.70380000  0.67170000  1.0 0.099700848
C  C97  1  0.34130000  0.72850000  0.19700000  1.0 0.1844207497
C  C98  1  0.19700000  0.34130000  0.72850000  1.0 0.1844207497
C  C99  1  0.72850000  0.19700000  0.34130000  1.0 0.1844207497
C  C100  1  0.77150000  0.80300000  0.84130000  1.0 0.1882192196
C  C101  1  0.69700000  0.15870000  0.27150000  1.0 0.1844207497
C  C102  1  0.27150000  0.69700000  0.15870000  1.0 0.1844207497
C  C103  1  0.30300000  0.65870000  0.22850000  1.0 0.1844207497
C  C104  1  0.80300000  0.84130000  0.77150000  1.0 0.1882192196
C  C105  1  0.22850000  0.30300000  0.65870000  1.0 0.1844207497
C  C106  1  0.15870000  0.27150000  0.69700000  1.0 0.1844207497
C  C107  1  0.84130000  0.77150000  0.80300000  1.0 0.1882192196
C  C108  1  0.65870000  0.22850000  0.30300000  1.0 0.1844207497
C  C109  1  0.65870000  0.27150000  0.80300000  1.0 0.1882192196
C  C110  1  0.80300000  0.65870000  0.27150000  1.0 0.1882192196
C  C111  1  0.27150000  0.80300000  0.65870000  1.0 0.1882192196
C  C112  1  0.22850000  0.19700000  0.15870000  1.0 0.1844207497
C  C113  1  0.30300000  0.84130000  0.72850000  1.0 0.1882192196
C  C114  1  0.72850000  0.30300000  0.84130000  1.0 0.1882192196
C  C115  1  0.69700000  0.34130000  0.77150000  1.0 0.1882192196
C  C116  1  0.19700000  0.15870000  0.22850000  1.0 0.1844207497
C  C117  1  0.77150000  0.69700000  0.34130000  1.0 0.1882192196
C  C118  1  0.84130000  0.72850000  0.30300000  1.0 0.1882192196
C  C119  1  0.15870000  0.22850000  0.19700000  1.0 0.1844207497
C  C120  1  0.34130000  0.77150000  0.69700000  1.0 0.1882192196
C  C121  1  0.46590000  0.84210000  0.14040000  0.483 -0.0892630947
C  C122  1  0.14040000  0.46590000  0.84210000  0.483 -0.0892630947
C  C123  1  0.84210000  0.14040000  0.46590000  0.483 -0.0892630947
C  C124  1  0.65790000  0.85960000  0.96590000  0.483 -0.0892630947
C  C125  1  0.64040000  0.03410000  0.15790000  0.483 -0.0892630947
C  C126  1  0.15790000  0.64040000  0.03410000  0.483 -0.0892630947
C  C127  1  0.35960000  0.53410000  0.34210000  0.483 -0.0892630947
C  C128  1  0.85960000  0.96590000  0.65790000  0.483 -0.0892630947
C  C129  1  0.34210000  0.35960000  0.53410000  0.483 -0.0892630947
C  C130  1  0.03410000  0.15790000  0.64040000  0.483 -0.0892630947
C  C131  1  0.96590000  0.65790000  0.85960000  0.483 -0.0892630947
C  C132  1  0.53410000  0.34210000  0.35960000  0.483 -0.0892630947
C  C133  1  0.53410000  0.15790000  0.85960000  0.483 -0.0831677945
C  C134  1  0.85960000  0.53410000  0.15790000  0.483 -0.0892630947
C  C135  1  0.15790000  0.85960000  0.53410000  0.483 -0.0892630947
C  C136  1  0.34210000  0.14040000  0.03410000  0.483 -0.0892630947
C  C137  1  0.35960000  0.96590000  0.84210000  0.483 -0.0892630947
C  C138  1  0.84210000  0.35960000  0.96590000  0.483 -0.0892630947
C  C139  1  0.64040000  0.46590000  0.65790000  0.483 -0.0892630947
C  C140  1  0.14040000  0.03410000  0.34210000  0.483 -0.0892630947
C  C141  1  0.65790000  0.64040000  0.46590000  0.483 -0.0892630947
C  C142  1  0.96590000  0.84210000  0.35960000  0.483 -0.0892630947
C  C143  1  0.03410000  0.34210000  0.14040000  0.483 -0.0892630947
C  C144  1  0.46590000  0.65790000  0.64040000  0.483 -0.0892630947
C  C145  1  0.44360000  0.80550000  0.16790000  0.483 -0.0892630947
C  C146  1  0.16790000  0.44360000  0.80550000  0.483 -0.0892630947
C  C147  1  0.80550000  0.16790000  0.44360000  0.483 -0.0980055523
C  C148  1  0.69450000  0.83210000  0.94360000  0.483 -0.0980055523
C  C149  1  0.66790000  0.05640000  0.19450000  0.483 -0.0980055523
C  C150  1  0.19450000  0.66790000  0.05640000  0.483 -0.0892630947
C  C151  1  0.33210000  0.55640000  0.30550000  0.483 -0.0892630947
C  C152  1  0.83210000  0.94360000  0.69450000  0.483 -0.0980055523
C  C153  1  0.30550000  0.33210000  0.55640000  0.483 -0.0892630947
C  C154  1  0.05640000  0.19450000  0.66790000  0.483 -0.0892630947
C  C155  1  0.94360000  0.69450000  0.83210000  0.483 -0.0980055523
C  C156  1  0.55640000  0.30550000  0.33210000  0.483 -0.0892630947
C  C157  1  0.55640000  0.19450000  0.83210000  0.483 -0.0980055523
C  C158  1  0.83210000  0.55640000  0.19450000  0.483 -0.0980055523
C  C159  1  0.19450000  0.83210000  0.55640000  0.483 -0.0980055523
C  C160  1  0.30550000  0.16790000  0.05640000  0.483 -0.0892630947
C  C161  1  0.33210000  0.94360000  0.80550000  0.483 -0.0892630947
C  C162  1  0.80550000  0.33210000  0.94360000  0.483 -0.0980055523
C  C163  1  0.66790000  0.44360000  0.69450000  0.483 -0.0980055523
C  C164  1  0.16790000  0.05640000  0.30550000  0.483 -0.0892630947
C  C165  1  0.69450000  0.66790000  0.44360000  0.483 -0.0980055523
C  C166  1  0.94360000  0.80550000  0.33210000  0.483 -0.0980055523
C  C167  1  0.05640000  0.30550000  0.16790000  0.483 -0.0892630947
C  C168  1  0.44360000  0.69450000  0.66790000  0.483 -0.0892630947
C  C169  1  0.36630000  0.82410000  0.14380000  0.483 -0.0831677945
C  C170  1  0.14380000  0.36630000  0.82410000  0.483 -0.0831677945
C  C171  1  0.82410000  0.14380000  0.36630000  0.483 -0.0831677945
C  C172  1  0.67590000  0.85620000  0.86630000  0.483 -0.0892630947
C  C173  1  0.64380000  0.13370000  0.17590000  0.483 -0.0892630947
C  C174  1  0.17590000  0.64380000  0.13370000  0.483 -0.0892630947
C  C175  1  0.35620000  0.63370000  0.32410000  0.483 -0.0831677945
C  C176  1  0.85620000  0.86630000  0.67590000  0.483 -0.0892630947
C  C177  1  0.32410000  0.35620000  0.63370000  0.483 -0.0831677945
C  C178  1  0.13370000  0.17590000  0.64380000  0.483 -0.0892630947
C  C179  1  0.86630000  0.67590000  0.85620000  0.483 -0.0892630947
C  C180  1  0.63370000  0.32410000  0.35620000  0.483 -0.0831677945
C  C181  1  0.63370000  0.17590000  0.85620000  0.483 -0.0892630947
C  C182  1  0.85620000  0.63370000  0.17590000  0.483 -0.0892630947
C  C183  1  0.17590000  0.85620000  0.63370000  0.483 -0.0892630947
C  C184  1  0.32410000  0.14380000  0.13370000  0.483 -0.0892630947
C  C185  1  0.35620000  0.86630000  0.82410000  0.483 -0.0831677945
C  C186  1  0.82410000  0.35620000  0.86630000  0.483 -0.0831677945
C  C187  1  0.64380000  0.36630000  0.67590000  0.483 -0.0831677945
C  C188  1  0.14380000  0.13370000  0.32410000  0.483 -0.0892630947
C  C189  1  0.67590000  0.64380000  0.36630000  0.483 -0.0831677945
C  C190  1  0.86630000  0.82410000  0.35620000  0.483 -0.0831677945
C  C191  1  0.13370000  0.32410000  0.14380000  0.483 -0.0892630947
C  C192  1  0.36630000  0.67590000  0.64380000  0.483 -0.0831677945
C  C193  1  0.38520000  0.86170000  0.11450000  0.483 -0.0892630947
C  C194  1  0.11450000  0.38520000  0.86170000  0.483 -0.0892630947
C  C195  1  0.86170000  0.11450000  0.38520000  0.483 -0.0892630947
C  C196  1  0.63830000  0.88550000  0.88520000  0.483 -0.0892630947
C  C197  1  0.61450000  0.11480000  0.13830000  0.483 -0.0892630947
C  C198  1  0.13830000  0.61450000  0.11480000  0.483 -0.0892630947
C  C199  1  0.38550000  0.61480000  0.36170000  0.483 -0.0892630947
C  C200  1  0.88550000  0.88520000  0.63830000  0.483 -0.0892630947
C  C201  1  0.36170000  0.38550000  0.61480000  0.483 -0.0892630947
C  C202  1  0.11480000  0.13830000  0.61450000  0.483 -0.0892630947
C  C203  1  0.88520000  0.63830000  0.88550000  0.483 -0.0892630947
C  C204  1  0.61480000  0.36170000  0.38550000  0.483 -0.0892630947
C  C205  1  0.61480000  0.13830000  0.88550000  0.483 -0.0892630947
C  C206  1  0.88550000  0.61480000  0.13830000  0.483 -0.0892630947
C  C207  1  0.13830000  0.88550000  0.61480000  0.483 -0.0892630947
C  C208  1  0.36170000  0.11450000  0.11480000  0.483 -0.0892630947
C  C209  1  0.38550000  0.88520000  0.86170000  0.483 -0.0892630947
C  C210  1  0.86170000  0.38550000  0.88520000  0.483 -0.0892630947
C  C211  1  0.61450000  0.38520000  0.63830000  0.483 -0.0892630947
C  C212  1  0.11450000  0.11480000  0.36170000  0.483 -0.0892630947
C  C213  1  0.63830000  0.61450000  0.38520000  0.483 -0.0892630947
C  C214  1  0.88520000  0.86170000  0.38550000  0.483 -0.0892630947
C  C215  1  0.11480000  0.36170000  0.11450000  0.483 -0.0892630947
C  C216  1  0.38520000  0.63830000  0.61450000  0.483 -0.0892630947
C  C217  1  0.43430000  0.87820000  0.16510000  0.517 -0.0892630947
C  C218  1  0.16510000  0.43430000  0.87820000  0.517 -0.0892630947
C  C219  1  0.87820000  0.16510000  0.43430000  0.517 -0.0892630947
C  C220  1  0.62180000  0.83490000  0.93430000  0.517 -0.0892630947
C  C221  1  0.66510000  0.06570000  0.12180000  0.517 -0.0980055523
C  C222  1  0.12180000  0.66510000  0.06570000  0.517 -0.0980055523
C  C223  1  0.33490000  0.56570000  0.37820000  0.517 -0.0892630947
C  C224  1  0.83490000  0.93430000  0.62180000  0.517 -0.0892630947
C  C225  1  0.37820000  0.33490000  0.56570000  0.517 -0.0892630947
C  C226  1  0.06570000  0.12180000  0.66510000  0.517 -0.0892630947
C  C227  1  0.93430000  0.62180000  0.83490000  0.517 -0.0892630947
C  C228  1  0.56570000  0.37820000  0.33490000  0.517 -0.0892630947
C  C229  1  0.56570000  0.12180000  0.83490000  0.517 -0.0892630947
C  C230  1  0.83490000  0.56570000  0.12180000  0.517 -0.0892630947
C  C231  1  0.12180000  0.83490000  0.56570000  0.517 -0.0892630947
C  C232  1  0.37820000  0.16510000  0.06570000  0.517 -0.0892630947
C  C233  1  0.33490000  0.93430000  0.87820000  0.517 -0.0892630947
C  C234  1  0.87820000  0.33490000  0.93430000  0.517 -0.0892630947
C  C235  1  0.66510000  0.43430000  0.62180000  0.517 -0.0892630947
C  C236  1  0.16510000  0.06570000  0.37820000  0.517 -0.0892630947
C  C237  1  0.62180000  0.66510000  0.43430000  0.517 -0.0892630947
C  C238  1  0.93430000  0.87820000  0.33490000  0.517 -0.0892630947
C  C239  1  0.06570000  0.37820000  0.16510000  0.517 -0.0892630947
C  C240  1  0.43430000  0.62180000  0.66510000  0.517 -0.0892630947
C  C241  1  0.41310000  0.83970000  0.19220000  0.517 -0.0831677945
C  C242  1  0.19220000  0.41310000  0.83970000  0.517 -0.0831677945
C  C243  1  0.83970000  0.19220000  0.41310000  0.517 -0.0831677945
C  C244  1  0.66030000  0.80780000  0.91310000  0.517 -0.0892630947
C  C245  1  0.69220000  0.08690000  0.16030000  0.517 -0.0831677945
C  C246  1  0.16030000  0.69220000  0.08690000  0.517 -0.0831677945
C  C247  1  0.30780000  0.58690000  0.33970000  0.517 -0.0831677945
C  C248  1  0.80780000  0.91310000  0.66030000  0.517 -0.0892630947
C  C249  1  0.33970000  0.30780000  0.58690000  0.517 -0.0831677945
C  C250  1  0.08690000  0.16030000  0.69220000  0.517 -0.0831677945
C  C251  1  0.91310000  0.66030000  0.80780000  0.517 -0.0892630947
C  C252  1  0.58690000  0.33970000  0.30780000  0.517 -0.0831677945
C  C253  1  0.58690000  0.16030000  0.80780000  0.517 -0.0892630947
C  C254  1  0.80780000  0.58690000  0.16030000  0.517 -0.0892630947
C  C255  1  0.16030000  0.80780000  0.58690000  0.517 -0.0892630947
C  C256  1  0.33970000  0.19220000  0.08690000  0.517 -0.0831677945
C  C257  1  0.30780000  0.91310000  0.83970000  0.517 -0.0831677945
C  C258  1  0.83970000  0.30780000  0.91310000  0.517 -0.0831677945
C  C259  1  0.69220000  0.41310000  0.66030000  0.517 -0.0831677945
C  C260  1  0.19220000  0.08690000  0.33970000  0.517 -0.0831677945
C  C261  1  0.66030000  0.69220000  0.41310000  0.517 -0.0831677945
C  C262  1  0.91310000  0.83970000  0.30780000  0.517 -0.0831677945
C  C263  1  0.08690000  0.33970000  0.19220000  0.517 -0.0831677945
C  C264  1  0.41310000  0.66030000  0.69220000  0.517 -0.0831677945
C  C265  1  0.41290000  0.83020000  0.09600000  0.517 -0.0660421855
C  C266  1  0.09600000  0.41290000  0.83020000  0.517 -0.0660421855
C  C267  1  0.83020000  0.09600000  0.41290000  0.517 -0.0660421855
C  C268  1  0.66980000  0.90400000  0.91290000  0.517 -0.06331675
C  C269  1  0.59600000  0.08710000  0.16980000  0.517 -0.06331675
C  C270  1  0.16980000  0.59600000  0.08710000  0.517 -0.06331675
C  C271  1  0.40400000  0.58710000  0.33020000  0.517 -0.06331675
C  C272  1  0.90400000  0.91290000  0.66980000  0.517 -0.06331675
C  C273  1  0.33020000  0.40400000  0.58710000  0.517 -0.06331675
C  C274  1  0.08710000  0.16980000  0.59600000  0.517 -0.06331675
C  C275  1  0.91290000  0.66980000  0.90400000  0.517 -0.06331675
C  C276  1  0.58710000  0.33020000  0.40400000  0.517 -0.06331675
C  C277  1  0.58710000  0.16980000  0.90400000  0.517 -0.06331675
C  C278  1  0.90400000  0.58710000  0.16980000  0.517 -0.06331675
C  C279  1  0.16980000  0.90400000  0.58710000  0.517 -0.06331675
C  C280  1  0.33020000  0.09600000  0.08710000  0.517 -0.06331675
C  C281  1  0.40400000  0.91290000  0.83020000  0.517 -0.0660421855
C  C282  1  0.83020000  0.40400000  0.91290000  0.517 -0.06331675
C  C283  1  0.59600000  0.41290000  0.66980000  0.517 -0.06331675
C  C284  1  0.09600000  0.08710000  0.33020000  0.517 -0.06331675
C  C285  1  0.66980000  0.59600000  0.41290000  0.517 -0.06331675
C  C286  1  0.91290000  0.83020000  0.40400000  0.517 -0.0660421855
C  C287  1  0.08710000  0.33020000  0.09600000  0.517 -0.06331675
C  C288  1  0.41290000  0.66980000  0.59600000  0.517 -0.06331675
C  C289  1  0.39350000  0.79370000  0.12460000  0.517 -0.0892630947
C  C290  1  0.12460000  0.39350000  0.79370000  0.517 -0.0892630947
C  C291  1  0.79370000  0.12460000  0.39350000  0.517 -0.0892630947
C  C292  1  0.70630000  0.87540000  0.89350000  0.517 -0.0892630947
C  C293  1  0.62460000  0.10650000  0.20630000  0.517 -0.0892630947
C  C294  1  0.20630000  0.62460000  0.10650000  0.517 -0.0892630947
C  C295  1  0.37540000  0.60650000  0.29370000  0.517 -0.0892630947
C  C296  1  0.87540000  0.89350000  0.70630000  0.517 -0.0892630947
C  C297  1  0.29370000  0.37540000  0.60650000  0.517 -0.0892630947
C  C298  1  0.10650000  0.20630000  0.62460000  0.517 -0.0892630947
C  C299  1  0.89350000  0.70630000  0.87540000  0.517 -0.0892630947
C  C300  1  0.60650000  0.29370000  0.37540000  0.517 -0.0892630947
C  C301  1  0.60650000  0.20630000  0.87540000  0.517 -0.0892630947
C  C302  1  0.87540000  0.60650000  0.20630000  0.517 -0.0892630947
C  C303  1  0.20630000  0.87540000  0.60650000  0.517 -0.0892630947
C  C304  1  0.29370000  0.12460000  0.10650000  0.517 -0.0892630947
C  C305  1  0.37540000  0.89350000  0.79370000  0.517 -0.0892630947
C  C306  1  0.79370000  0.37540000  0.89350000  0.517 -0.0892630947
C  C307  1  0.62460000  0.39350000  0.70630000  0.517 -0.0892630947
C  C308  1  0.12460000  0.10650000  0.29370000  0.517 -0.0892630947
C  C309  1  0.70630000  0.62460000  0.39350000  0.517 -0.0892630947
C  C310  1  0.89350000  0.79370000  0.37540000  0.517 -0.0892630947
C  C311  1  0.10650000  0.29370000  0.12460000  0.517 -0.0892630947
C  C312  1  0.39350000  0.70630000  0.62460000  0.517 -0.0892630947
N  N1  1  0.38060000  0.75980000  0.20320000  1.0 -0.3992842112
N  N2  1  0.20320000  0.38060000  0.75980000  1.0 -0.3992842112
N  N3  1  0.75980000  0.20320000  0.38060000  1.0 -0.3992842112
N  N4  1  0.74020000  0.79680000  0.88060000  1.0 -0.3992842112
N  N5  1  0.70320000  0.11940000  0.24020000  1.0 -0.3992842112
N  N6  1  0.24020000  0.70320000  0.11940000  1.0 -0.3992842112
N  N7  1  0.29680000  0.61940000  0.25980000  1.0 -0.3992842112
N  N8  1  0.79680000  0.88060000  0.74020000  1.0 -0.3992842112
N  N9  1  0.25980000  0.29680000  0.61940000  1.0 -0.3992842112
N  N10  1  0.11940000  0.24020000  0.70320000  1.0 -0.3992842112
N  N11  1  0.88060000  0.74020000  0.79680000  1.0 -0.3992842112
N  N12  1  0.61940000  0.25980000  0.29680000  1.0 -0.3992842112
N  N13  1  0.61940000  0.24020000  0.79680000  1.0 -0.3992842112
N  N14  1  0.79680000  0.61940000  0.24020000  1.0 -0.3992842112
N  N15  1  0.24020000  0.79680000  0.61940000  1.0 -0.3992842112
N  N16  1  0.25980000  0.20320000  0.11940000  1.0 -0.3992842112
N  N17  1  0.29680000  0.88060000  0.75980000  1.0 -0.3992842112
N  N18  1  0.75980000  0.29680000  0.88060000  1.0 -0.3992842112
N  N19  1  0.70320000  0.38060000  0.74020000  1.0 -0.3992842112
N  N20  1  0.20320000  0.11940000  0.25980000  1.0 -0.3992842112
N  N21  1  0.74020000  0.70320000  0.38060000  1.0 -0.3992842112
N  N22  1  0.88060000  0.75980000  0.29680000  1.0 -0.3992842112
N  N23  1  0.11940000  0.25980000  0.20320000  1.0 -0.3992842112
N  N24  1  0.38060000  0.74020000  0.70320000  1.0 -0.3992842112
O  O1  1  0.50000000  0.00000000  0.00000000  1.0 -0.6949006355
O  O2  1  0.00000000  0.50000000  0.00000000  1.0 -0.6955951488
O  O3  1  0.00000000  0.00000000  0.50000000  1.0 -0.6949006355
O  O4  1  0.50000000  0.50000000  0.50000000  1.0 -0.6955951488
O  O5  1  0.50130000  0.91070000  0.07860000  0.483 -0.263015095
O  O6  1  0.07860000  0.50130000  0.91070000  0.483 -0.263015095
O  O7  1  0.91070000  0.07860000  0.50130000  0.483 -0.263015095
O  O8  1  0.58930000  0.92140000  0.00130000  0.483 -0.263015095
O  O9  1  0.57860000  0.99870000  0.08930000  0.483 -0.2665122386
O  O10  1  0.08930000  0.57860000  0.99870000  0.483 -0.2665122386
O  O11  1  0.42140000  0.49870000  0.41070000  0.483 -0.263015095
O  O12  1  0.92140000  0.00130000  0.58930000  0.483 -0.263015095
O  O13  1  0.41070000  0.42140000  0.49870000  0.483 -0.263015095
O  O14  1  0.99870000  0.08930000  0.57860000  0.483 -0.2665122386
O  O15  1  0.00130000  0.58930000  0.92140000  0.483 -0.263015095
O  O16  1  0.49870000  0.41070000  0.42140000  0.483 -0.263015095
O  O17  1  0.49870000  0.08930000  0.92140000  0.483 -0.263015095
O  O18  1  0.92140000  0.49870000  0.08930000  0.483 -0.263015095
O  O19  1  0.08930000  0.92140000  0.49870000  0.483 -0.263015095
O  O20  1  0.41070000  0.07860000  0.99870000  0.483 -0.2665122386
O  O21  1  0.42140000  0.00130000  0.91070000  0.483 -0.263015095
O  O22  1  0.91070000  0.42140000  0.00130000  0.483 -0.263015095
O  O23  1  0.57860000  0.50130000  0.58930000  0.483 -0.263015095
O  O24  1  0.07860000  0.99870000  0.41070000  0.483 -0.2665122386
O  O25  1  0.58930000  0.57860000  0.50130000  0.483 -0.263015095
O  O26  1  0.00130000  0.91070000  0.42140000  0.483 -0.263015095
O  O27  1  0.99870000  0.41070000  0.07860000  0.483 -0.2665122386
O  O28  1  0.50130000  0.58930000  0.57860000  0.483 -0.263015095
O  O29  1  0.42440000  0.93031000  0.06090000  0.483 -0.2356115765
O  O30  1  0.06090000  0.42440000  0.93031000  0.483 -0.2337056991
O  O31  1  0.93031000  0.06090000  0.42440000  0.483 -0.2356115765
O  O32  1  0.56969000  0.93910000  0.92440000  0.483 -0.2337056991
O  O33  1  0.56090000  0.07560000  0.06969000  0.483 -0.2337056991
O  O34  1  0.06969000  0.56090000  0.07560000  0.483 -0.2337056991
O  O35  1  0.43910000  0.57560000  0.43031000  0.483 -0.2337056991
O  O36  1  0.93910000  0.92440000  0.56969000  0.483 -0.2337056991
O  O37  1  0.43031000  0.43910000  0.57560000  0.483 -0.2337056991
O  O38  1  0.07560000  0.06969000  0.56090000  0.483 -0.2337056991
O  O39  1  0.92440000  0.56969000  0.93910000  0.483 -0.2337056991
O  O40  1  0.57560000  0.43031000  0.43910000  0.483 -0.2337056991
O  O41  1  0.57560000  0.06969000  0.93910000  0.483 -0.2337056991
O  O42  1  0.93910000  0.57560000  0.06969000  0.483 -0.2337056991
O  O43  1  0.06969000  0.93910000  0.57560000  0.483 -0.2337056991
O  O44  1  0.43031000  0.06090000  0.07560000  0.483 -0.2356115765
O  O45  1  0.43910000  0.92440000  0.93031000  0.483 -0.2337056991
O  O46  1  0.93031000  0.43910000  0.92440000  0.483 -0.2337056991
O  O47  1  0.56090000  0.42440000  0.56969000  0.483 -0.2337056991
O  O48  1  0.06090000  0.07560000  0.43031000  0.483 -0.2356115765
O  O49  1  0.56969000  0.56090000  0.42440000  0.483 -0.2337056991
O  O50  1  0.92440000  0.93031000  0.43910000  0.483 -0.2337056991
O  O51  1  0.07560000  0.43031000  0.06090000  0.483 -0.2356115765
O  O52  1  0.42440000  0.56969000  0.56090000  0.483 -0.2337056991
O  O53  1  0.46283000  0.95220000  0.10360000  0.517 -0.3007018925
O  O54  1  0.10360000  0.46283000  0.95220000  0.517 -0.3007018925
O  O55  1  0.95220000  0.10360000  0.46283000  0.517 -0.3007018925
O  O56  1  0.54780000  0.89640000  0.96283000  0.517 -0.3007018925
O  O57  1  0.60360000  0.03717000  0.04780000  0.517 -0.3007018925
O  O58  1  0.04780000  0.60360000  0.03717000  0.517 -0.3007018925
O  O59  1  0.39640000  0.53717000  0.45220000  0.517 -0.3007018925
O  O60  1  0.89640000  0.96283000  0.54780000  0.517 -0.3007018925
O  O61  1  0.45220000  0.39640000  0.53717000  0.517 -0.3007018925
O  O62  1  0.03717000  0.04780000  0.60360000  0.517 -0.3007018925
O  O63  1  0.96283000  0.54780000  0.89640000  0.517 -0.3007018925
O  O64  1  0.53717000  0.45220000  0.39640000  0.517 -0.3007018925
O  O65  1  0.53717000  0.04780000  0.89640000  0.517 -0.3007018925
O  O66  1  0.89640000  0.53717000  0.04780000  0.517 -0.3007018925
O  O67  1  0.04780000  0.89640000  0.53717000  0.517 -0.3007018925
O  O68  1  0.45220000  0.10360000  0.03717000  0.517 -0.3007018925
O  O69  1  0.39640000  0.96283000  0.95220000  0.517 -0.3007018925
O  O70  1  0.95220000  0.39640000  0.96283000  0.517 -0.3007018925
O  O71  1  0.60360000  0.46283000  0.54780000  0.517 -0.3007018925
O  O72  1  0.10360000  0.03717000  0.45220000  0.517 -0.3007018925
O  O73  1  0.54780000  0.60360000  0.46283000  0.517 -0.3007018925
O  O74  1  0.96283000  0.95220000  0.39640000  0.517 -0.3007018925
O  O75  1  0.03717000  0.45220000  0.10360000  0.517 -0.3007018925
O  O76  1  0.46283000  0.54780000  0.60360000  0.517 -0.3007018925
O  O77  1  0.46090000  0.89610000  0.04330000  0.517 -0.1958774096
O  O78  1  0.04330000  0.46090000  0.89610000  0.517 -0.1941365944
O  O79  1  0.89610000  0.04330000  0.46090000  0.517 -0.1958774096
O  O80  1  0.60390000  0.95670000  0.96090000  0.517 -0.1941365944
O  O81  1  0.54330000  0.03910000  0.10390000  0.517 -0.1958774096
O  O82  1  0.10390000  0.54330000  0.03910000  0.517 -0.1958774096
O  O83  1  0.45670000  0.53910000  0.39610000  0.517 -0.1958774096
O  O84  1  0.95670000  0.96090000  0.60390000  0.517 -0.1941365944
O  O85  1  0.39610000  0.45670000  0.53910000  0.517 -0.1941365944
O  O86  1  0.03910000  0.10390000  0.54330000  0.517 -0.1958774096
O  O87  1  0.96090000  0.60390000  0.95670000  0.517 -0.1941365944
O  O88  1  0.53910000  0.39610000  0.45670000  0.517 -0.1958774096
O  O89  1  0.53910000  0.10390000  0.95670000  0.517 -0.1941365944
O  O90  1  0.95670000  0.53910000  0.10390000  0.517 -0.1958774096
O  O91  1  0.10390000  0.95670000  0.53910000  0.517 -0.1941365944
O  O92  1  0.39610000  0.04330000  0.03910000  0.517 -0.1941365944
O  O93  1  0.45670000  0.96090000  0.89610000  0.517 -0.1941365944
O  O94  1  0.89610000  0.45670000  0.96090000  0.517 -0.1941365944
O  O95  1  0.54330000  0.46090000  0.60390000  0.517 -0.1941365944
O  O96  1  0.04330000  0.03910000  0.39610000  0.517 -0.1941365944
O  O97  1  0.60390000  0.54330000  0.46090000  0.517 -0.1958774096
O  O98  1  0.96090000  0.89610000  0.45670000  0.517 -0.1958774096
O  O99  1  0.03910000  0.39610000  0.04330000  0.517 -0.1941365944
O  O100  1  0.46090000  0.60390000  0.54330000  0.517 -0.1941365944
