# DDEC6 charges by PACMAN v1.1 (https://github.com/mtap-research/PACMAN-charge/)
data_c5ta03835a2_2_FSR_pacman
_symmetry_space_group_name_H-M   'P 1'
_cell_length_a   16.06400000
_cell_length_b   21.03500000
_cell_length_c   29.89100000
_cell_angle_alpha   90.00000000
_cell_angle_beta   90.00000000
_cell_angle_gamma   90.00000000
_symmetry_Int_Tables_number   1
_chemical_formula_structural   ZnH16C21N3O5
_chemical_formula_sum   'Zn8 H128 C168 N24 O40'
_cell_volume   10100.35541984
_cell_formula_units_Z   8
loop_
 _symmetry_equiv_pos_site_id
 _symmetry_equiv_pos_as_xyz
  1  'x, y, z'
loop_
 _atom_site_type_symbol
 _atom_site_label
 _atom_site_symmetry_multiplicity
 _atom_site_fract_x
 _atom_site_fract_y
 _atom_site_fract_z
 _atom_site_occupancy
 _atom_site_charge
Zn  Zn1  1  0.66140000  0.61913000  0.73825000  1.0 0.7897801257
Zn  Zn2  1  0.83860000  0.61913000  0.76175000  1.0 0.7897801257
Zn  Zn3  1  0.66140000  0.11913000  0.26175000  1.0 0.7897801257
Zn  Zn4  1  0.83860000  0.11913000  0.23825000  1.0 0.7897801257
Zn  Zn5  1  0.33860000  0.88087000  0.73825000  1.0 0.7897801257
Zn  Zn6  1  0.16140000  0.88087000  0.76175000  1.0 0.7897801257
Zn  Zn7  1  0.33860000  0.38087000  0.26175000  1.0 0.7897801257
Zn  Zn8  1  0.16140000  0.38087000  0.23825000  1.0 0.7897801257
H  H1  1  0.67340000  0.24940000  0.37670000  1.0 0.11884689
H  H2  1  0.82660000  0.24940000  0.12330000  1.0 0.11884689
H  H3  1  0.67340000  0.74940000  0.62330000  1.0 0.11884689
H  H4  1  0.82660000  0.74940000  0.87670000  1.0 0.11884689
H  H5  1  0.67360000  0.48400000  0.62630000  1.0 0.11884689
H  H6  1  0.82640000  0.48400000  0.87370000  1.0 0.11884689
H  H7  1  0.67360000  0.98400000  0.37370000  1.0 0.11884689
H  H8  1  0.82640000  0.98400000  0.12630000  1.0 0.11884689
H  H9  1  0.70580000  0.30640000  0.44120000  1.0 0.132818169
H  H10  1  0.79420000  0.30640000  0.05880000  1.0 0.132818169
H  H11  1  0.70580000  0.80640000  0.55880000  1.0 0.132818169
H  H12  1  0.79420000  0.80640000  0.94120000  1.0 0.1386955164
H  H13  1  0.90930000  0.37070000  0.53880000  1.0 0.2798838622
H  H14  1  0.59070000  0.37070000  0.96120000  1.0 0.2798838622
H  H15  1  0.90930000  0.87070000  0.46120000  1.0 0.2798838622
H  H16  1  0.59070000  0.87070000  0.03880000  1.0 0.2798838622
H  H17  1  0.91690000  0.23980000  0.34400000  1.0 0.11884689
H  H18  1  0.58310000  0.23980000  0.15600000  1.0 0.11884689
H  H19  1  0.91690000  0.73980000  0.65600000  1.0 0.11884689
H  H20  1  0.58310000  0.73980000  0.84400000  1.0 0.11884689
H  H21  1  0.90980000  0.33660000  0.47560000  1.0 0.2594698377
H  H22  1  0.59020000  0.33660000  0.02440000  1.0 0.2594698377
H  H23  1  0.90980000  0.83660000  0.52440000  1.0 0.2594698377
H  H24  1  0.59020000  0.83660000  0.97560000  1.0 0.2594698377
H  H25  1  0.91070000  0.48150000  0.66480000  1.0 0.132818169
H  H26  1  0.58930000  0.48150000  0.83520000  1.0 0.11884689
H  H27  1  0.91070000  0.98150000  0.33520000  1.0 0.132818169
H  H28  1  0.58930000  0.98150000  0.16480000  1.0 0.11884689
H  H29  1  0.94640000  0.42100000  0.60240000  1.0 0.11884689
H  H30  1  0.55360000  0.42100000  0.89760000  1.0 0.11884689
H  H31  1  0.94640000  0.92100000  0.39760000  1.0 0.11884689
H  H32  1  0.55360000  0.92100000  0.10240000  1.0 0.11884689
H  H33  1  0.70470000  0.42240000  0.56350000  1.0 0.1386955164
H  H34  1  0.79530000  0.42240000  0.93650000  1.0 0.1386955164
H  H35  1  0.70470000  0.92240000  0.43650000  1.0 0.1386955164
H  H36  1  0.79530000  0.92240000  0.06350000  1.0 0.1386955164
H  H37  1  0.24800000  0.59300000  0.71080000  1.0 0.0978524958
H  H38  1  0.25200000  0.59300000  0.78920000  1.0 0.0978524958
H  H39  1  0.24800000  0.09300000  0.28920000  1.0 0.0978524958
H  H40  1  0.25200000  0.09300000  0.21080000  1.0 0.0978524958
H  H41  1  0.25210000  0.66900000  0.71190000  1.0 0.0912613727
H  H42  1  0.24790000  0.66900000  0.78810000  1.0 0.0912613727
H  H43  1  0.25210000  0.16900000  0.28810000  1.0 0.0912613727
H  H44  1  0.24790000  0.16900000  0.21190000  1.0 0.0912613727
H  H45  1  0.94870000  0.29600000  0.40930000  1.0 0.1096716567
H  H46  1  0.55130000  0.29600000  0.09070000  1.0 0.1096716567
H  H47  1  0.94870000  0.79600000  0.59070000  1.0 0.1096716567
H  H48  1  0.55130000  0.79600000  0.90930000  1.0 0.1096716567
H  H81  1  0.32660000  0.25060000  0.37670000  1.0 0.11884689
H  H82  1  0.17340000  0.25060000  0.12330000  1.0 0.11884689
H  H83  1  0.32660000  0.75060000  0.62330000  1.0 0.11884689
H  H84  1  0.17340000  0.75060000  0.87670000  1.0 0.11884689
H  H85  1  0.32640000  0.01600000  0.62630000  1.0 0.11884689
H  H86  1  0.17360000  0.01600000  0.87370000  1.0 0.11884689
H  H87  1  0.32640000  0.51600000  0.37370000  1.0 0.11884689
H  H88  1  0.17360000  0.51600000  0.12630000  1.0 0.11884689
H  H89  1  0.29420000  0.19360000  0.44120000  1.0 0.132818169
H  H90  1  0.20580000  0.19360000  0.05880000  1.0 0.132818169
H  H91  1  0.29420000  0.69360000  0.55880000  1.0 0.132818169
H  H92  1  0.20580000  0.69360000  0.94120000  1.0 0.132818169
H  H93  1  0.09070000  0.12930000  0.53880000  1.0 0.2798838622
H  H94  1  0.40930000  0.12930000  0.96120000  1.0 0.2798838622
H  H95  1  0.09070000  0.62930000  0.46120000  1.0 0.2798838622
H  H96  1  0.40930000  0.62930000  0.03880000  1.0 0.2798838622
H  H97  1  0.08310000  0.26020000  0.34400000  1.0 0.11884689
H  H98  1  0.41690000  0.26020000  0.15600000  1.0 0.11884689
H  H99  1  0.08310000  0.76020000  0.65600000  1.0 0.11884689
H  H100  1  0.41690000  0.76020000  0.84400000  1.0 0.11884689
H  H101  1  0.09020000  0.16340000  0.47560000  1.0 0.2594698377
H  H102  1  0.40980000  0.16340000  0.02440000  1.0 0.2594698377
H  H103  1  0.09020000  0.66340000  0.52440000  1.0 0.2594698377
H  H104  1  0.40980000  0.66340000  0.97560000  1.0 0.2594698377
H  H105  1  0.08930000  0.01850000  0.66480000  1.0 0.11884689
H  H106  1  0.41070000  0.01850000  0.83520000  1.0 0.11884689
H  H107  1  0.08930000  0.51850000  0.33520000  1.0 0.11884689
H  H108  1  0.41070000  0.51850000  0.16480000  1.0 0.11884689
H  H109  1  0.05360000  0.07900000  0.60240000  1.0 0.11884689
H  H110  1  0.44640000  0.07900000  0.89760000  1.0 0.11884689
H  H111  1  0.05360000  0.57900000  0.39760000  1.0 0.11884689
H  H112  1  0.44640000  0.57900000  0.10240000  1.0 0.11884689
H  H113  1  0.29530000  0.07760000  0.56350000  1.0 0.1386955164
H  H114  1  0.20470000  0.07760000  0.93650000  1.0 0.1386955164
H  H115  1  0.29530000  0.57760000  0.43650000  1.0 0.1386955164
H  H116  1  0.20470000  0.57760000  0.06350000  1.0 0.1386955164
H  H117  1  0.75200000  0.90700000  0.71080000  1.0 0.0978524958
H  H118  1  0.74800000  0.90700000  0.78920000  1.0 0.0978524958
H  H119  1  0.75200000  0.40700000  0.28920000  1.0 0.0978524958
H  H120  1  0.74800000  0.40700000  0.21080000  1.0 0.0978524958
H  H121  1  0.74790000  0.83100000  0.71190000  1.0 0.0912613727
H  H122  1  0.75210000  0.83100000  0.78810000  1.0 0.0912613727
H  H123  1  0.74790000  0.33100000  0.28810000  1.0 0.0912613727
H  H124  1  0.75210000  0.33100000  0.21190000  1.0 0.0912613727
H  H125  1  0.05130000  0.20400000  0.40930000  1.0 0.1096716567
H  H126  1  0.44870000  0.20400000  0.09070000  1.0 0.1096716567
H  H127  1  0.05130000  0.70400000  0.59070000  1.0 0.1096716567
H  H128  1  0.44870000  0.70400000  0.90930000  1.0 0.1096716567
H  H49  1  0.37840000  0.71590000  0.74870000  0.5 0.11884689
H  H50  1  0.12160000  0.71590000  0.75130000  0.5 0.11884689
H  H51  1  0.37840000  0.21590000  0.25130000  0.5 0.11884689
H  H52  1  0.12160000  0.21590000  0.24870000  0.5 0.11884689
H  H53  1  0.52340000  0.71260000  0.75330000  0.5 0.0790230434
H  H54  1  0.97660000  0.71260000  0.74670000  0.5 0.0790230434
H  H55  1  0.52340000  0.21260000  0.24670000  0.5 0.0790230434
H  H56  1  0.97660000  0.21260000  0.25330000  0.5 0.0790230434
H  H57  1  0.52540000  0.68590000  0.68800000  0.5 0.1096716567
H  H58  1  0.97460000  0.68590000  0.81200000  0.5 0.1096716567
H  H59  1  0.52540000  0.18590000  0.31200000  0.5 0.1096716567
H  H60  1  0.97460000  0.18590000  0.18800000  0.5 0.1096716567
H  H61  1  0.52080000  0.53540000  0.70870000  0.5 0.11884689
H  H62  1  0.97920000  0.53540000  0.79130000  0.5 0.11884689
H  H63  1  0.52080000  0.03540000  0.29130000  0.5 0.11884689
H  H64  1  0.97920000  0.03540000  0.20870000  0.5 0.11884689
H  H65  1  0.37870000  0.53290000  0.70950000  0.5 0.1096716567
H  H66  1  0.12130000  0.53290000  0.79050000  0.5 0.1096716567
H  H67  1  0.37870000  0.03290000  0.29050000  0.5 0.1096716567
H  H68  1  0.12130000  0.03290000  0.20950000  0.5 0.1096716567
H  H69  1  0.38290000  0.69820000  0.68960000  0.5 0.1096716567
H  H70  1  0.11710000  0.69820000  0.81040000  0.5 0.1096716567
H  H71  1  0.38290000  0.19820000  0.31040000  0.5 0.1096716567
H  H72  1  0.11710000  0.19820000  0.18960000  0.5 0.1096716567
H  H73  1  0.52320000  0.58830000  0.79410000  0.5 0.11884689
H  H74  1  0.97680000  0.58830000  0.70590000  0.5 0.11884689
H  H75  1  0.52320000  0.08830000  0.20590000  0.5 0.11884689
H  H76  1  0.97680000  0.08830000  0.29410000  0.5 0.11884689
H  H77  1  0.37930000  0.59870000  0.79770000  0.5 0.0978524958
H  H78  1  0.12070000  0.59870000  0.70230000  0.5 0.0978524958
H  H79  1  0.37930000  0.09870000  0.20230000  0.5 0.0978524958
H  H80  1  0.12070000  0.09870000  0.29770000  0.5 0.0978524958
H  H129  1  0.62160000  0.78410000  0.74870000  0.5 0.11884689
H  H130  1  0.87840000  0.78410000  0.75130000  0.5 0.11884689
H  H131  1  0.62160000  0.28410000  0.25130000  0.5 0.11884689
H  H132  1  0.87840000  0.28410000  0.24870000  0.5 0.11884689
H  H133  1  0.47660000  0.78740000  0.75330000  0.5 0.0790230434
H  H134  1  0.02340000  0.78740000  0.74670000  0.5 0.0790230434
H  H135  1  0.47660000  0.28740000  0.24670000  0.5 0.0790230434
H  H136  1  0.02340000  0.28740000  0.25330000  0.5 0.0790230434
H  H137  1  0.47460000  0.81410000  0.68800000  0.5 0.1096716567
H  H138  1  0.02540000  0.81410000  0.81200000  0.5 0.1096716567
H  H139  1  0.47460000  0.31410000  0.31200000  0.5 0.1096716567
H  H140  1  0.02540000  0.31410000  0.18800000  0.5 0.1096716567
H  H141  1  0.47920000  0.96460000  0.70870000  0.5 0.11884689
H  H142  1  0.02080000  0.96460000  0.79130000  0.5 0.11884689
H  H143  1  0.47920000  0.46460000  0.29130000  0.5 0.11884689
H  H144  1  0.02080000  0.46460000  0.20870000  0.5 0.11884689
H  H145  1  0.62130000  0.96710000  0.70950000  0.5 0.1096716567
H  H146  1  0.87870000  0.96710000  0.79050000  0.5 0.1096716567
H  H147  1  0.62130000  0.46710000  0.29050000  0.5 0.1096716567
H  H148  1  0.87870000  0.46710000  0.20950000  0.5 0.1096716567
H  H149  1  0.61710000  0.80180000  0.68960000  0.5 0.1096716567
H  H150  1  0.88290000  0.80180000  0.81040000  0.5 0.1096716567
H  H151  1  0.61710000  0.30180000  0.31040000  0.5 0.1096716567
H  H152  1  0.88290000  0.30180000  0.18960000  0.5 0.1096716567
H  H153  1  0.47680000  0.91170000  0.79410000  0.5 0.11884689
H  H154  1  0.02320000  0.91170000  0.70590000  0.5 0.11884689
H  H155  1  0.47680000  0.41170000  0.20590000  0.5 0.11884689
H  H156  1  0.02320000  0.41170000  0.29410000  0.5 0.11884689
H  H157  1  0.62070000  0.90130000  0.79770000  0.5 0.0978524958
H  H158  1  0.87930000  0.90130000  0.70230000  0.5 0.0978524958
H  H159  1  0.62070000  0.40130000  0.20230000  0.5 0.0978524958
H  H160  1  0.87930000  0.40130000  0.29770000  0.5 0.0978524958
C  C1  1  0.77052000  0.20014000  0.31303000  1.0 0.570096188
C  C2  1  0.72948000  0.20014000  0.18697000  1.0 0.570096188
C  C3  1  0.77052000  0.70014000  0.68697000  1.0 0.570096188
C  C4  1  0.72948000  0.70014000  0.81303000  1.0 0.570096188
C  C5  1  0.79142000  0.23897000  0.35390000  1.0 -0.0356412342
C  C6  1  0.70858000  0.23897000  0.14610000  1.0 -0.0316810691
C  C7  1  0.79142000  0.73897000  0.64610000  1.0 -0.0356412342
C  C8  1  0.70858000  0.73897000  0.85390000  1.0 -0.0356412342
C  C9  1  0.76875000  0.53521000  0.68839000  1.0 0.570096188
C  C10  1  0.73125000  0.53521000  0.81161000  1.0 0.570096188
C  C11  1  0.76875000  0.03521000  0.31161000  1.0 0.570096188
C  C12  1  0.73125000  0.03521000  0.18839000  1.0 0.570096188
C  C13  1  0.79028000  0.49140000  0.65095000  1.0 -0.0470771485
C  C14  1  0.70972000  0.49140000  0.84905000  1.0 -0.0470771485
C  C15  1  0.79028000  0.99140000  0.34905000  1.0 -0.0470771485
C  C16  1  0.70972000  0.99140000  0.15095000  1.0 -0.0470771485
C  C17  1  0.72990000  0.25870000  0.38331000  1.0 -0.1082835996
C  C18  1  0.77010000  0.25870000  0.11669000  1.0 -0.1082835996
C  C19  1  0.72990000  0.75870000  0.61669000  1.0 -0.1082835996
C  C20  1  0.77010000  0.75870000  0.88331000  1.0 -0.1082835996
C  C21  1  0.72968000  0.47160000  0.62115000  1.0 -0.0929029978
C  C22  1  0.77032000  0.47160000  0.87885000  1.0 -0.0929029978
C  C23  1  0.72968000  0.97160000  0.37885000  1.0 -0.0929029978
C  C24  1  0.77032000  0.97160000  0.12115000  1.0 -0.0929029978
C  C25  1  0.74900000  0.29160000  0.42214000  1.0 -0.1884396133
C  C26  1  0.75100000  0.29160000  0.07786000  1.0 -0.1837036379
C  C27  1  0.74900000  0.79160000  0.57786000  1.0 -0.1884396133
C  C28  1  0.75100000  0.79160000  0.92214000  1.0 -0.1837036379
C  C29  1  0.82820000  0.41470000  0.57756000  1.0 0.2448555015
C  C30  1  0.67180000  0.41470000  0.92244000  1.0 0.2448555015
C  C31  1  0.82820000  0.91470000  0.42244000  1.0 0.2448555015
C  C32  1  0.67180000  0.91470000  0.07756000  1.0 0.2498892925
C  C33  1  0.87376000  0.25260000  0.36378000  1.0 -0.1082835996
C  C34  1  0.62624000  0.25260000  0.13622000  1.0 -0.1082835996
C  C35  1  0.87376000  0.75260000  0.63622000  1.0 -0.1082835996
C  C36  1  0.62624000  0.75260000  0.86378000  1.0 -0.1082835996
C  C37  1  0.83110000  0.30260000  0.43287000  1.0 0.2498892925
C  C38  1  0.66890000  0.30260000  0.06713000  1.0 0.2498892925
C  C39  1  0.83110000  0.80260000  0.56713000  1.0 0.2498892925
C  C40  1  0.66890000  0.80260000  0.93287000  1.0 0.2498892925
C  C41  1  0.86870000  0.47040000  0.64384000  1.0 -0.1000434386
C  C42  1  0.63130000  0.47040000  0.85616000  1.0 -0.1000434386
C  C43  1  0.86870000  0.97040000  0.35616000  1.0 -0.1000434386
C  C44  1  0.63130000  0.97040000  0.14384000  1.0 -0.1000434386
C  C45  1  0.89030000  0.43340000  0.60715000  1.0 -0.1987791455
C  C46  1  0.60970000  0.43340000  0.89285000  1.0 -0.1987791455
C  C47  1  0.89030000  0.93340000  0.39285000  1.0 -0.1987791455
C  C48  1  0.60970000  0.93340000  0.10715000  1.0 -0.1987791455
C  C49  1  0.74730000  0.43420000  0.58391000  1.0 -0.1884396133
C  C50  1  0.75270000  0.43420000  0.91609000  1.0 -0.1884396133
C  C51  1  0.74730000  0.93420000  0.41609000  1.0 -0.1884396133
C  C52  1  0.75270000  0.93420000  0.08391000  1.0 -0.1884396133
C  C53  1  0.80770000  0.35880000  0.50505000  1.0 0.5781455196
C  C54  1  0.69230000  0.35880000  0.99495000  1.0 0.5781455196
C  C55  1  0.80770000  0.85880000  0.49495000  1.0 0.5781455196
C  C56  1  0.69230000  0.85880000  0.00505000  1.0 0.5781455196
C  C57  1  0.26900000  0.62990000  0.72800000  1.0 -0.2471233898
C  C58  1  0.23100000  0.62990000  0.77200000  1.0 -0.2471233898
C  C59  1  0.26900000  0.12990000  0.27200000  1.0 -0.2471233898
C  C60  1  0.23100000  0.12990000  0.22800000  1.0 -0.2471233898
C  C61  1  0.89240000  0.28530000  0.40297000  1.0 -0.2162284919
C  C62  1  0.60760000  0.28530000  0.09703000  1.0 -0.2149764665
C  C63  1  0.89240000  0.78530000  0.59703000  1.0 -0.2162284919
C  C64  1  0.60760000  0.78530000  0.90297000  1.0 -0.2149764665
C  C65  1  0.36310000  0.62690000  0.72967000  1.0 0.0912613727
C  C66  1  0.13690000  0.62690000  0.77033000  1.0 0.0912613727
C  C67  1  0.36310000  0.12690000  0.27033000  1.0 0.0912613727
C  C68  1  0.13690000  0.12690000  0.22967000  1.0 0.0912613727
C  C101  1  0.22948000  0.29986000  0.31303000  1.0 0.570096188
C  C102  1  0.27052000  0.29986000  0.18697000  1.0 0.570096188
C  C103  1  0.22948000  0.79986000  0.68697000  1.0 0.570096188
C  C104  1  0.27052000  0.79986000  0.81303000  1.0 0.570096188
C  C105  1  0.20858000  0.26103000  0.35390000  1.0 -0.0356412342
C  C106  1  0.29142000  0.26103000  0.14610000  1.0 -0.0356412342
C  C107  1  0.20858000  0.76103000  0.64610000  1.0 -0.0356412342
C  C108  1  0.29142000  0.76103000  0.85390000  1.0 -0.0356412342
C  C109  1  0.23125000  0.96479000  0.68839000  1.0 0.570096188
C  C110  1  0.26875000  0.96479000  0.81161000  1.0 0.570096188
C  C111  1  0.23125000  0.46479000  0.31161000  1.0 0.570096188
C  C112  1  0.26875000  0.46479000  0.18839000  1.0 0.570096188
C  C113  1  0.20972000  0.00860000  0.65095000  1.0 -0.0470771485
C  C114  1  0.29028000  0.00860000  0.84905000  1.0 -0.0470771485
C  C115  1  0.20972000  0.50860000  0.34905000  1.0 -0.0470771485
C  C116  1  0.29028000  0.50860000  0.15095000  1.0 -0.0470771485
C  C117  1  0.27010000  0.24130000  0.38331000  1.0 -0.1082835996
C  C118  1  0.22990000  0.24130000  0.11669000  1.0 -0.1082835996
C  C119  1  0.27010000  0.74130000  0.61669000  1.0 -0.1082835996
C  C120  1  0.22990000  0.74130000  0.88331000  1.0 -0.1082835996
C  C121  1  0.27032000  0.02840000  0.62115000  1.0 -0.0929029978
C  C122  1  0.22968000  0.02840000  0.87885000  1.0 -0.0929029978
C  C123  1  0.27032000  0.52840000  0.37885000  1.0 -0.0929029978
C  C124  1  0.22968000  0.52840000  0.12115000  1.0 -0.0929029978
C  C125  1  0.25100000  0.20840000  0.42214000  1.0 -0.1884396133
C  C126  1  0.24900000  0.20840000  0.07786000  1.0 -0.1884396133
C  C127  1  0.25100000  0.70840000  0.57786000  1.0 -0.1884396133
C  C128  1  0.24900000  0.70840000  0.92214000  1.0 -0.1884396133
C  C129  1  0.17180000  0.08530000  0.57756000  1.0 0.2448555015
C  C130  1  0.32820000  0.08530000  0.92244000  1.0 0.2448555015
C  C131  1  0.17180000  0.58530000  0.42244000  1.0 0.2448555015
C  C132  1  0.32820000  0.58530000  0.07756000  1.0 0.2448555015
C  C133  1  0.12624000  0.24740000  0.36378000  1.0 -0.1082835996
C  C134  1  0.37376000  0.24740000  0.13622000  1.0 -0.1082835996
C  C135  1  0.12624000  0.74740000  0.63622000  1.0 -0.1082835996
C  C136  1  0.37376000  0.74740000  0.86378000  1.0 -0.1082835996
C  C137  1  0.16890000  0.19740000  0.43287000  1.0 0.2498892925
C  C138  1  0.33110000  0.19740000  0.06713000  1.0 0.2498892925
C  C139  1  0.16890000  0.69740000  0.56713000  1.0 0.2498892925
C  C140  1  0.33110000  0.69740000  0.93287000  1.0 0.2498892925
C  C141  1  0.13130000  0.02960000  0.64384000  1.0 -0.1000434386
C  C142  1  0.36870000  0.02960000  0.85616000  1.0 -0.1000434386
C  C143  1  0.13130000  0.52960000  0.35616000  1.0 -0.1000434386
C  C144  1  0.36870000  0.52960000  0.14384000  1.0 -0.1000434386
C  C145  1  0.10970000  0.06660000  0.60715000  1.0 -0.1987791455
C  C146  1  0.39030000  0.06660000  0.89285000  1.0 -0.1987791455
C  C147  1  0.10970000  0.56660000  0.39285000  1.0 -0.1987791455
C  C148  1  0.39030000  0.56660000  0.10715000  1.0 -0.1987791455
C  C149  1  0.25270000  0.06580000  0.58391000  1.0 -0.1884396133
C  C150  1  0.24730000  0.06580000  0.91609000  1.0 -0.1884396133
C  C151  1  0.25270000  0.56580000  0.41609000  1.0 -0.1884396133
C  C152  1  0.24730000  0.56580000  0.08391000  1.0 -0.1884396133
C  C153  1  0.19230000  0.14120000  0.50505000  1.0 0.5781455196
C  C154  1  0.30770000  0.14120000  0.99495000  1.0 0.5781455196
C  C155  1  0.19230000  0.64120000  0.49495000  1.0 0.5781455196
C  C156  1  0.30770000  0.64120000  0.00505000  1.0 0.5781455196
C  C157  1  0.73100000  0.87010000  0.72800000  1.0 -0.2471233898
C  C158  1  0.76900000  0.87010000  0.77200000  1.0 -0.2471233898
C  C159  1  0.73100000  0.37010000  0.27200000  1.0 -0.2471233898
C  C160  1  0.76900000  0.37010000  0.22800000  1.0 -0.2471233898
C  C161  1  0.10760000  0.21470000  0.40297000  1.0 -0.2162284919
C  C162  1  0.39240000  0.21470000  0.09703000  1.0 -0.2162284919
C  C163  1  0.10760000  0.71470000  0.59703000  1.0 -0.2162284919
C  C164  1  0.39240000  0.71470000  0.90297000  1.0 -0.2162284919
C  C165  1  0.63690000  0.87310000  0.72967000  1.0 0.0912613727
C  C166  1  0.86310000  0.87310000  0.77033000  1.0 0.0912613727
C  C167  1  0.63690000  0.37310000  0.27033000  1.0 0.0912613727
C  C168  1  0.86310000  0.37310000  0.22967000  1.0 0.0912613727
C  C69  1  0.40680000  0.67760000  0.74160000  0.5 -0.0316810691
C  C70  1  0.09320000  0.67760000  0.75840000  0.5 -0.0316810691
C  C71  1  0.40680000  0.17760000  0.25840000  0.5 -0.0316810691
C  C72  1  0.09320000  0.17760000  0.24160000  0.5 -0.0316810691
C  C73  1  0.49360000  0.67590000  0.74400000  0.5 -0.0203488612
C  C74  1  0.00640000  0.67590000  0.75600000  0.5 -0.0203488612
C  C75  1  0.49360000  0.17590000  0.25600000  0.5 -0.0203488612
C  C76  1  0.00640000  0.17590000  0.24400000  0.5 -0.0203488612
C  C77  1  0.49440000  0.65980000  0.70790000  0.5 -0.0043783856
C  C78  1  0.00560000  0.65980000  0.79210000  0.5 -0.0043783856
C  C79  1  0.49440000  0.15980000  0.29210000  0.5 -0.0043783856
C  C80  1  0.00560000  0.15980000  0.20790000  0.5 -0.0043783856
C  C81  1  0.49130000  0.57180000  0.71870000  0.5 -0.0316810691
C  C82  1  0.00870000  0.57180000  0.78130000  0.5 -0.0316810691
C  C83  1  0.49130000  0.07180000  0.28130000  0.5 -0.0316810691
C  C84  1  0.00870000  0.07180000  0.21870000  0.5 -0.0316810691
C  C85  1  0.40760000  0.57050000  0.71780000  0.5 -0.1987791455
C  C86  1  0.09240000  0.57050000  0.78220000  0.5 -0.1987791455
C  C87  1  0.40760000  0.07050000  0.28220000  0.5 -0.1987791455
C  C88  1  0.09240000  0.07050000  0.21780000  0.5 -0.1987791455
C  C89  1  0.40830000  0.66570000  0.70690000  0.5 -0.0929029978
C  C90  1  0.09170000  0.66570000  0.79310000  0.5 -0.0929029978
C  C91  1  0.40830000  0.16570000  0.29310000  0.5 -0.0929029978
C  C92  1  0.09170000  0.16570000  0.20690000  0.5 -0.0929029978
C  C93  1  0.49360000  0.60420000  0.76900000  0.5 -0.0137896291
C  C94  1  0.00640000  0.60420000  0.73100000  0.5 -0.0137896291
C  C95  1  0.49360000  0.10420000  0.23100000  0.5 -0.0137896291
C  C96  1  0.00640000  0.10420000  0.26900000  0.5 -0.0137896291
C  C97  1  0.40850000  0.60800000  0.77090000  0.5 -0.1348722868
C  C98  1  0.09150000  0.60800000  0.72910000  0.5 -0.1348722868
C  C99  1  0.40850000  0.10800000  0.22910000  0.5 -0.1357840069
C  C100  1  0.09150000  0.10800000  0.27090000  0.5 -0.1357840069
C  C169  1  0.59320000  0.82240000  0.74160000  0.5 -0.0316810691
C  C170  1  0.90680000  0.82240000  0.75840000  0.5 -0.0316810691
C  C171  1  0.59320000  0.32240000  0.25840000  0.5 -0.0316810691
C  C172  1  0.90680000  0.32240000  0.24160000  0.5 -0.0316810691
C  C173  1  0.50640000  0.82410000  0.74400000  0.5 -0.0203488612
C  C174  1  0.99360000  0.82410000  0.75600000  0.5 -0.0203488612
C  C175  1  0.50640000  0.32410000  0.25600000  0.5 -0.0203488612
C  C176  1  0.99360000  0.32410000  0.24400000  0.5 -0.0203488612
C  C177  1  0.50560000  0.84020000  0.70790000  0.5 -0.0043783856
C  C178  1  0.99440000  0.84020000  0.79210000  0.5 -0.0043783856
C  C179  1  0.50560000  0.34020000  0.29210000  0.5 -0.0043783856
C  C180  1  0.99440000  0.34020000  0.20790000  0.5 -0.0043783856
C  C181  1  0.50870000  0.92820000  0.71870000  0.5 -0.0316810691
C  C182  1  0.99130000  0.92820000  0.78130000  0.5 -0.0316810691
C  C183  1  0.50870000  0.42820000  0.28130000  0.5 -0.0316810691
C  C184  1  0.99130000  0.42820000  0.21870000  0.5 -0.0316810691
C  C185  1  0.59240000  0.92950000  0.71780000  0.5 -0.1987791455
C  C186  1  0.90760000  0.92950000  0.78220000  0.5 -0.1987791455
C  C187  1  0.59240000  0.42950000  0.28220000  0.5 -0.1987791455
C  C188  1  0.90760000  0.42950000  0.21780000  0.5 -0.1987791455
C  C189  1  0.59170000  0.83430000  0.70690000  0.5 -0.0929029978
C  C190  1  0.90830000  0.83430000  0.79310000  0.5 -0.0929029978
C  C191  1  0.59170000  0.33430000  0.29310000  0.5 -0.0929029978
C  C192  1  0.90830000  0.33430000  0.20690000  0.5 -0.0929029978
C  C193  1  0.50640000  0.89580000  0.76900000  0.5 -0.0137896291
C  C194  1  0.99360000  0.89580000  0.73100000  0.5 -0.0137896291
C  C195  1  0.50640000  0.39580000  0.23100000  0.5 -0.0137896291
C  C196  1  0.99360000  0.39580000  0.26900000  0.5 -0.0137896291
C  C197  1  0.59150000  0.89200000  0.77090000  0.5 -0.1348722868
C  C198  1  0.90850000  0.89200000  0.72910000  0.5 -0.1348722868
C  C199  1  0.59150000  0.39200000  0.22910000  0.5 -0.1357840069
C  C200  1  0.90850000  0.39200000  0.27090000  0.5 -0.1357840069
N  N1  1  0.85590000  0.37980000  0.53991000  1.0 -0.4618954763
N  N2  1  0.64410000  0.37980000  0.96009000  1.0 -0.4618954763
N  N3  1  0.85590000  0.87980000  0.46009000  1.0 -0.4618954763
N  N4  1  0.64410000  0.87980000  0.03991000  1.0 -0.4618954763
N  N5  1  0.85569000  0.33320000  0.47174000  1.0 -0.442343212
N  N6  1  0.64431000  0.33320000  0.02826000  1.0 -0.442343212
N  N7  1  0.85569000  0.83320000  0.52826000  1.0 -0.442343212
N  N8  1  0.64431000  0.83320000  0.97174000  1.0 -0.442343212
N  N9  1  0.53540000  0.62226000  0.73313000  1.0 -0.0203488612
N  N10  1  0.96460000  0.62226000  0.76687000  1.0 -0.0203488612
N  N11  1  0.53540000  0.12226000  0.26687000  1.0 -0.0203488612
N  N12  1  0.96460000  0.12226000  0.23313000  1.0 -0.0203488612
N  N13  1  0.14410000  0.12020000  0.53991000  1.0 -0.4618954763
N  N14  1  0.35590000  0.12020000  0.96009000  1.0 -0.4618954763
N  N15  1  0.14410000  0.62020000  0.46009000  1.0 -0.4618954763
N  N16  1  0.35590000  0.62020000  0.03991000  1.0 -0.4618954763
N  N17  1  0.14431000  0.16680000  0.47174000  1.0 -0.442343212
N  N18  1  0.35569000  0.16680000  0.02826000  1.0 -0.442343212
N  N19  1  0.14431000  0.66680000  0.52826000  1.0 -0.442343212
N  N20  1  0.35569000  0.66680000  0.97174000  1.0 -0.442343212
N  N21  1  0.46460000  0.87774000  0.73313000  1.0 -0.0203488612
N  N22  1  0.03540000  0.87774000  0.76687000  1.0 -0.0203488612
N  N23  1  0.46460000  0.37774000  0.26687000  1.0 -0.0203488612
N  N24  1  0.03540000  0.37774000  0.23313000  1.0 -0.0203488612
O  O1  1  0.69518000  0.18608000  0.30690000  1.0 -0.552050791
O  O2  1  0.80482000  0.18608000  0.19310000  1.0 -0.552050791
O  O3  1  0.69518000  0.68608000  0.69310000  1.0 -0.552050791
O  O4  1  0.80482000  0.68608000  0.80690000  1.0 -0.552050791
O  O5  1  0.69654000  0.55360000  0.69250000  1.0 -0.5189350464
O  O6  1  0.80346000  0.55360000  0.80750000  1.0 -0.5189350464
O  O7  1  0.69654000  0.05360000  0.30750000  1.0 -0.5189350464
O  O8  1  0.80346000  0.05360000  0.19250000  1.0 -0.5189350464
O  O9  1  0.83015000  0.18388000  0.28821000  1.0 -0.5597294972
O  O10  1  0.66985000  0.18388000  0.21179000  1.0 -0.5597294972
O  O11  1  0.83015000  0.68388000  0.71179000  1.0 -0.5597294972
O  O12  1  0.66985000  0.68388000  0.78821000  1.0 -0.5597294972
O  O13  1  0.82749000  0.55144000  0.71371000  1.0 -0.5597294972
O  O14  1  0.67251000  0.55144000  0.78629000  1.0 -0.5597294972
O  O15  1  0.82749000  0.05144000  0.28629000  1.0 -0.5597294972
O  O16  1  0.67251000  0.05144000  0.21371000  1.0 -0.5597294972
O  O17  1  0.73450000  0.36588000  0.50153000  1.0 -0.4914531328
O  O18  1  0.76550000  0.36588000  0.99847000  1.0 -0.4914531328
O  O19  1  0.73450000  0.86588000  0.49847000  1.0 -0.4914531328
O  O20  1  0.76550000  0.86588000  0.00153000  1.0 -0.4968480982
O  O21  1  0.30482000  0.31392000  0.30690000  1.0 -0.552050791
O  O22  1  0.19518000  0.31392000  0.19310000  1.0 -0.552050791
O  O23  1  0.30482000  0.81392000  0.69310000  1.0 -0.552050791
O  O24  1  0.19518000  0.81392000  0.80690000  1.0 -0.552050791
O  O25  1  0.30346000  0.94640000  0.69250000  1.0 -0.5189350464
O  O26  1  0.19654000  0.94640000  0.80750000  1.0 -0.5189350464
O  O27  1  0.30346000  0.44640000  0.30750000  1.0 -0.5189350464
O  O28  1  0.19654000  0.44640000  0.19250000  1.0 -0.5189350464
O  O29  1  0.16985000  0.31612000  0.28821000  1.0 -0.5597294972
O  O30  1  0.33015000  0.31612000  0.21179000  1.0 -0.5597294972
O  O31  1  0.16985000  0.81612000  0.71179000  1.0 -0.5597294972
O  O32  1  0.33015000  0.81612000  0.78821000  1.0 -0.5597294972
O  O33  1  0.17251000  0.94856000  0.71371000  1.0 -0.5597294972
O  O34  1  0.32749000  0.94856000  0.78629000  1.0 -0.5597294972
O  O35  1  0.17251000  0.44856000  0.28629000  1.0 -0.5597294972
O  O36  1  0.32749000  0.44856000  0.21371000  1.0 -0.5597294972
O  O37  1  0.26550000  0.13412000  0.50153000  1.0 -0.4914531328
O  O38  1  0.23450000  0.13412000  0.99847000  1.0 -0.4914531328
O  O39  1  0.26550000  0.63412000  0.49847000  1.0 -0.4914531328
O  O40  1  0.23450000  0.63412000  0.00153000  1.0 -0.4914531328
