# generated by PACMAN-DDEC6 charge (https://github.com/sxm13/PACMAN/)
data_structure
_chemical_formula_sum              "Al16 H200 C360 N32 O80"
_cell_length_a       21.3126
_cell_length_b       21.3129
_cell_length_c       39.0603
_cell_angle_alpha    90
_cell_angle_beta     90
_cell_angle_gamma    90

_symmetry_space_group_name_H-M    "P 1"
_symmetry_Int_Tables_number       1

loop_
  _symmetry_equiv_pos_as_xyz
  'x, y, z'

loop_
  _atom_site_type_symbol
  _atom_site_label
  _atom_site_symmetry_multiplicity
  _atom_site_fract_x
  _atom_site_fract_y
  _atom_site_fract_z
  _atom_site_occupancy
  _atom_site_charge
Al  Al1       1.0  0.20356  0.01778  0.02237  1.0000 1.520038113
Al  Al2       1.0  0.29644  0.98222  0.52237  1.0000 1.520038113
Al  Al3       1.0  0.70356  0.48222  0.97763  1.0000 1.520038113
Al  Al4       1.0  0.79644  0.51778  0.47763  1.0000 1.520038113
Al  Al5       1.0  0.76893  0.06359  0.73489  1.0000 1.5272888988
Al  Al6       1.0  0.73107  0.93641  0.23489  1.0000 1.5272888988
Al  Al7       1.0  0.26893  0.43641  0.26511  1.0000 1.5272888988
Al  Al8       1.0  0.23107  0.56359  0.76511  1.0000 1.5272888988
Al  Al9       1.0  0.77887  0.95088  0.77873  1.0000 1.520038113
Al  Al10      1.0  0.72113  0.04912  0.27873  1.0000 1.520038113
Al  Al11      1.0  0.27887  0.54912  0.22127  1.0000 1.520038113
Al  Al12      1.0  0.22113  0.45088  0.72127  1.0000 1.520038113
Al  Al13      1.0  0.31650  0.02820  0.97902  1.0000 1.520038113
Al  Al14      1.0  0.18350  0.97180  0.47902  1.0000 1.520038113
Al  Al15      1.0  0.81650  0.47180  0.02098  1.0000 1.520038113
Al  Al16      1.0  0.68350  0.52820  0.52098  1.0000 1.520038113
H   H1        1.0  0.61172  0.99141  0.76142  1.0000 0.0718958058
H   H2        1.0  0.88828  0.00859  0.26142  1.0000 0.0718958058
H   H3        1.0  0.11172  0.50859  0.23858  1.0000 0.0718958058
H   H4        1.0  0.38828  0.49141  0.73858  1.0000 0.0718958058
H   H5        1.0  0.28106  0.87152  0.01341  1.0000 0.0884025345
H   H6        1.0  0.21894  0.12848  0.51341  1.0000 0.0884025345
H   H7        1.0  0.78106  0.62848  0.98659  1.0000 0.0884025345
H   H8        1.0  0.71894  0.37152  0.48659  1.0000 0.0884025345
H   H9        1.0  0.90679  0.09965  0.90151  1.0000 0.1501660031
H   H10       1.0  0.59321  0.90035  0.40151  1.0000 0.1501660031
H   H11       1.0  0.40679  0.40035  0.09849  1.0000 0.1501660031
H   H12       1.0  0.09321  0.59965  0.59849  1.0000 0.1501660031
H   H13       1.0  0.97737  0.11424  0.95212  1.0000 0.1501660031
H   H14       1.0  0.52263  0.88576  0.45212  1.0000 0.1501660031
H   H15       1.0  0.47737  0.38576  0.04788  1.0000 0.1501660031
H   H16       1.0  0.02263  0.61424  0.54788  1.0000 0.1501660031
H   H17       1.0  0.26418  0.01779  0.86997  1.0000 0.1501660031
H   H18       1.0  0.23582  0.98221  0.36997  1.0000 0.1501660031
H   H19       1.0  0.76418  0.48221  0.13003  1.0000 0.1501660031
H   H20       1.0  0.73582  0.51779  0.63003  1.0000 0.1501660031
H   H21       1.0  0.11216  0.05583  0.95243  1.0000 0.1501660031
H   H22       1.0  0.38784  0.94417  0.45243  1.0000 0.1501660031
H   H23       1.0  0.61216  0.44417  0.04757  1.0000 0.1501660031
H   H24       1.0  0.88784  0.55583  0.54757  1.0000 0.1501660031
H   H25       1.0  0.08390  0.04787  0.89524  1.0000 0.1271095606
H   H26       1.0  0.41610  0.95213  0.39524  1.0000 0.1271095606
H   H27       1.0  0.58390  0.45213  0.10476  1.0000 0.1271095606
H   H28       1.0  0.91610  0.54787  0.60476  1.0000 0.1271095606
H   H29       1.0  0.14479  0.81661  0.82999  1.0000 0.1425151117
H   H30       1.0  0.35521  0.18339  0.32999  1.0000 0.1425151117
H   H31       1.0  0.64479  0.68339  0.17001  1.0000 0.1425151117
H   H32       1.0  0.85521  0.31661  0.67001  1.0000 0.1425151117
H   H33       1.0  0.15634  0.90568  0.87142  1.0000 0.1501660031
H   H34       1.0  0.34366  0.09432  0.37142  1.0000 0.1501660031
H   H35       1.0  0.65634  0.59432  0.12858  1.0000 0.1501660031
H   H36       1.0  0.84366  0.40568  0.62858  1.0000 0.1501660031
H   H37       1.0  0.94793  0.10781  0.08699  1.0000 0.1501660031
H   H38       1.0  0.55207  0.89219  0.58699  1.0000 0.1501660031
H   H39       1.0  0.44793  0.39219  0.91301  1.0000 0.1501660031
H   H40       1.0  0.05207  0.60781  0.41301  1.0000 0.1501660031
H   H41       1.0  0.85521  0.08898  0.12530  1.0000 0.1501660031
H   H42       1.0  0.64479  0.91102  0.62530  1.0000 0.1501660031
H   H43       1.0  0.35521  0.41102  0.87470  1.0000 0.1501660031
H   H44       1.0  0.14479  0.58898  0.37470  1.0000 0.1501660031
H   H45       1.0  0.24886  0.01198  0.63196  1.0000 0.1501660031
H   H46       1.0  0.25114  0.98802  0.13196  1.0000 0.1501660031
H   H47       1.0  0.74886  0.48802  0.36804  1.0000 0.1501660031
H   H48       1.0  0.75114  0.51198  0.86804  1.0000 0.1501660031
H   H49       1.0  0.09829  0.95200  0.55265  1.0000 0.1501660031
H   H50       1.0  0.40171  0.04800  0.05265  1.0000 0.1501660031
H   H51       1.0  0.59829  0.54800  0.44735  1.0000 0.1501660031
H   H52       1.0  0.90171  0.45200  0.94735  1.0000 0.1501660031
H   H53       1.0  0.07289  0.95711  0.61034  1.0000 0.1271095606
H   H54       1.0  0.42711  0.04289  0.11034  1.0000 0.1271095606
H   H55       1.0  0.57289  0.54289  0.38966  1.0000 0.1271095606
H   H56       1.0  0.92711  0.45711  0.88966  1.0000 0.1271095606
H   H57       1.0  0.60851  0.08846  0.10986  1.0000 0.1501660031
H   H58       1.0  0.89149  0.91154  0.60986  1.0000 0.1501660031
H   H59       1.0  0.10851  0.41154  0.89014  1.0000 0.1501660031
H   H60       1.0  0.39149  0.58846  0.39014  1.0000 0.1501660031
H   H61       1.0  0.54067  0.09764  0.05766  1.0000 0.1501660031
H   H62       1.0  0.95933  0.90236  0.55766  1.0000 0.1501660031
H   H63       1.0  0.04067  0.40236  0.94234  1.0000 0.1501660031
H   H64       1.0  0.45933  0.59764  0.44234  1.0000 0.1501660031
H   H65       1.0  0.12286  0.19710  0.67323  1.0000 0.1501660031
H   H66       1.0  0.37714  0.80290  0.17323  1.0000 0.1501660031
H   H67       1.0  0.62286  0.30290  0.32677  1.0000 0.1501660031
H   H68       1.0  0.87714  0.69710  0.82677  1.0000 0.1501660031
H   H69       1.0  0.13769  0.10356  0.63489  1.0000 0.1501660031
H   H70       1.0  0.36231  0.89644  0.13489  1.0000 0.1501660031
H   H71       1.0  0.63769  0.39644  0.36511  1.0000 0.1501660031
H   H72       1.0  0.86231  0.60356  0.86511  1.0000 0.1501660031
H   H73       1.0  0.22380  0.24660  0.73551  1.0000 0.1569225875
H   H74       1.0  0.27620  0.75340  0.23551  1.0000 0.1569225875
H   H75       1.0  0.72380  0.25340  0.26449  1.0000 0.1569225875
H   H76       1.0  0.77620  0.74660  0.76449  1.0000 0.1569225875
H   H77       1.0  0.03446  0.35398  0.73345  1.0000 0.1425151117
H   H78       1.0  0.46554  0.64602  0.23345  1.0000 0.1425151117
H   H79       1.0  0.53446  0.14602  0.26655  1.0000 0.1425151117
H   H80       1.0  0.96554  0.85398  0.76655  1.0000 0.1425151117
H   H81       1.0  0.03567  0.24636  0.74232  1.0000 0.12272433
H   H82       1.0  0.46433  0.75364  0.24232  1.0000 0.12272433
H   H83       1.0  0.53567  0.25364  0.25768  1.0000 0.12272433
H   H84       1.0  0.96433  0.74636  0.75768  1.0000 0.12272433
H   H85       1.0  0.56992  0.12723  0.92932  1.0000 0.1501660031
H   H86       1.0  0.93008  0.87277  0.42932  1.0000 0.1501660031
H   H87       1.0  0.06992  0.37277  0.07068  1.0000 0.1501660031
H   H88       1.0  0.43008  0.62723  0.57068  1.0000 0.1501660031
H   H89       1.0  0.65995  0.11585  0.88858  1.0000 0.1569225875
H   H90       1.0  0.84005  0.88415  0.38858  1.0000 0.1569225875
H   H91       1.0  0.15995  0.38415  0.11142  1.0000 0.1569225875
H   H92       1.0  0.34005  0.61585  0.61142  1.0000 0.1569225875
H   H93       1.0  0.22805  0.77249  0.75737  1.0000 0.1501660031
H   H94       1.0  0.27195  0.22751  0.25737  1.0000 0.1501660031
H   H95       1.0  0.72805  0.72751  0.24263  1.0000 0.1501660031
H   H96       1.0  0.77195  0.27249  0.74263  1.0000 0.1501660031
H   H97       1.0  0.05279  0.65607  0.78789  1.0000 0.1425151117
H   H98       1.0  0.44721  0.34393  0.28789  1.0000 0.1425151117
H   H99       1.0  0.55279  0.84393  0.21211  1.0000 0.1425151117
H   H100      1.0  0.94721  0.15607  0.71211  1.0000 0.1425151117
H   H101      1.0  0.04850  0.76483  0.78849  1.0000 0.12272433
H   H102      1.0  0.45150  0.23517  0.28849  1.0000 0.12272433
H   H103      1.0  0.54850  0.73517  0.21151  1.0000 0.12272433
H   H104      1.0  0.95150  0.26483  0.71151  1.0000 0.12272433
H   H105      1.0  0.77264  0.99915  0.88870  1.0000 0.1501660031
H   H106      1.0  0.72736  0.00085  0.38870  1.0000 0.1501660031
H   H107      1.0  0.27264  0.50085  0.11130  1.0000 0.1501660031
H   H108      1.0  0.22736  0.49915  0.61130  1.0000 0.1501660031
H   H109      1.0  0.80424  0.15167  0.80571  1.0000 0.1501660031
H   H110      1.0  0.69576  0.84833  0.30571  1.0000 0.1501660031
H   H111      1.0  0.30424  0.34833  0.19429  1.0000 0.1501660031
H   H112      1.0  0.19576  0.65167  0.69429  1.0000 0.1501660031
H   H113      1.0  0.80194  0.17941  0.86313  1.0000 0.1271095606
H   H114      1.0  0.69806  0.82059  0.36313  1.0000 0.1271095606
H   H115      1.0  0.30194  0.32059  0.13687  1.0000 0.1271095606
H   H116      1.0  0.19806  0.67941  0.63687  1.0000 0.1271095606
H   H117      1.0  0.15034  0.22356  0.80351  1.0000 0.1501660031
H   H118      1.0  0.34966  0.77644  0.30351  1.0000 0.1501660031
H   H119      1.0  0.65034  0.27644  0.19649  1.0000 0.1501660031
H   H120      1.0  0.84966  0.72356  0.69649  1.0000 0.1501660031
H   H121      1.0  0.16832  0.15625  0.85496  1.0000 0.1501660031
H   H122      1.0  0.33168  0.84375  0.35496  1.0000 0.1501660031
H   H123      1.0  0.66832  0.34375  0.14504  1.0000 0.1501660031
H   H124      1.0  0.83168  0.65625  0.64504  1.0000 0.1501660031
H   H125      1.0  0.13429  0.78612  0.69979  1.0000 0.1569225875
H   H126      1.0  0.36571  0.21388  0.19979  1.0000 0.1569225875
H   H127      1.0  0.63429  0.71388  0.30021  1.0000 0.1569225875
H   H128      1.0  0.86571  0.28612  0.80021  1.0000 0.1569225875
H   H129      1.0  0.14521  0.85787  0.64911  1.0000 0.1501660031
H   H130      1.0  0.35479  0.14213  0.14911  1.0000 0.1501660031
H   H131      1.0  0.64521  0.64213  0.35089  1.0000 0.1501660031
H   H132      1.0  0.85479  0.35787  0.85089  1.0000 0.1501660031
H   H133      1.0  0.99684  0.01852  0.00938  1.0000 0.1501660031
H   H134      1.0  0.50316  0.98148  0.50938  1.0000 0.1501660031
H   H135      1.0  0.49684  0.48148  0.99062  1.0000 0.1501660031
H   H136      1.0  0.00316  0.51852  0.49062  1.0000 0.1501660031
H   H137      1.0  0.10387  0.20143  0.03658  1.0000 0.1425151117
H   H138      1.0  0.39613  0.79857  0.53658  1.0000 0.1425151117
H   H139      1.0  0.60387  0.29857  0.96342  1.0000 0.1425151117
H   H140      1.0  0.89613  0.70143  0.46342  1.0000 0.1425151117
H   H141      1.0  0.99516  0.20179  0.03352  1.0000 0.1133173927
H   H142      1.0  0.50484  0.79821  0.53352  1.0000 0.1133173927
H   H143      1.0  0.49516  0.29821  0.96648  1.0000 0.1133173927
H   H144      1.0  0.00484  0.70179  0.46648  1.0000 0.1133173927
H   H145      1.0  0.76171  0.99074  0.12713  1.0000 0.1501660031
H   H146      1.0  0.73829  0.00926  0.62713  1.0000 0.1501660031
H   H147      1.0  0.26171  0.50926  0.87287  1.0000 0.1501660031
H   H148      1.0  0.23829  0.49074  0.37287  1.0000 0.1501660031
H   H149      1.0  0.69772  0.13853  0.20707  1.0000 0.1425151117
H   H150      1.0  0.80228  0.86147  0.70707  1.0000 0.1425151117
H   H151      1.0  0.19772  0.36147  0.79293  1.0000 0.1425151117
H   H152      1.0  0.30228  0.63853  0.29293  1.0000 0.1425151117
H   H153      1.0  0.71052  0.16721  0.15020  1.0000 0.1271095606
H   H154      1.0  0.78948  0.83279  0.65020  1.0000 0.1271095606
H   H155      1.0  0.21052  0.33279  0.84980  1.0000 0.1271095606
H   H156      1.0  0.28948  0.66721  0.34980  1.0000 0.1271095606
H   H157      1.0  0.52039  0.02710  0.99156  1.0000 0.1501660031
H   H158      1.0  0.97961  0.97290  0.49156  1.0000 0.1501660031
H   H159      1.0  0.02039  0.47290  0.00844  1.0000 0.1501660031
H   H160      1.0  0.47961  0.52710  0.50844  1.0000 0.1501660031
H   H161      1.0  0.40968  0.21358  0.98109  1.0000 0.1425151117
H   H162      1.0  0.09032  0.78642  0.48109  1.0000 0.1425151117
H   H163      1.0  0.90968  0.28642  0.01891  1.0000 0.1425151117
H   H164      1.0  0.59032  0.71358  0.51891  1.0000 0.1425151117
H   H165      1.0  0.51730  0.21559  0.98998  1.0000 0.12272433
H   H166      1.0  0.98270  0.78441  0.48998  1.0000 0.12272433
H   H167      1.0  0.01730  0.28441  0.01002  1.0000 0.12272433
H   H168      1.0  0.48270  0.71559  0.51002  1.0000 0.12272433
H   H169      1.0  0.80046  0.11009  0.98524  0.5000 0.2317376339
H   H170      1.0  0.69954  0.88991  0.48524  0.5000 0.2317376339
H   H171      1.0  0.30046  0.38991  0.01476  0.5000 0.2317376339
H   H172      1.0  0.19954  0.61009  0.51476  0.5000 0.2317376339
H   H173      1.0  0.13564  0.97732  0.77767  0.5000 0.2210268517
H   H174      1.0  0.36436  0.02268  0.27767  0.5000 0.2210268517
H   H175      1.0  0.63564  0.52268  0.22233  0.5000 0.2210268517
H   H176      1.0  0.86436  0.47732  0.72233  0.5000 0.2210268517
H   H177      1.0  0.79211  0.11788  0.03023  0.5000 0.2317376339
H   H178      1.0  0.70789  0.88212  0.53023  0.5000 0.2317376339
H   H179      1.0  0.29211  0.38212  0.96977  0.5000 0.2317376339
H   H180      1.0  0.20789  0.61788  0.46977  0.5000 0.2317376339
H   H181      1.0  0.71919  0.12080  0.02935  0.5000 0.2398100775
H   H182      1.0  0.78081  0.87920  0.52935  0.5000 0.2398100775
H   H183      1.0  0.21919  0.37920  0.97065  0.5000 0.2398100775
H   H184      1.0  0.28081  0.62080  0.47065  0.5000 0.2398100775
H   H185      1.0  0.13478  0.04369  0.73185  0.5000 0.2531853728
H   H186      1.0  0.36522  0.95631  0.23185  0.5000 0.2531853728
H   H187      1.0  0.63478  0.45631  0.26815  0.5000 0.2531853728
H   H188      1.0  0.86522  0.54369  0.76815  0.5000 0.2531853728
H   H189      1.0  0.72749  0.11189  0.98374  0.5000 0.2317376339
H   H190      1.0  0.77251  0.88811  0.48374  0.5000 0.2317376339
H   H191      1.0  0.22749  0.38811  0.01626  0.5000 0.2317376339
H   H192      1.0  0.27251  0.61189  0.51626  0.5000 0.2317376339
H   H193      1.0  0.13065  0.04501  0.77583  0.5000 0.2210268517
H   H194      1.0  0.36935  0.95499  0.27583  0.5000 0.2210268517
H   H195      1.0  0.63065  0.45499  0.22417  0.5000 0.2210268517
H   H196      1.0  0.86935  0.54501  0.72417  0.5000 0.2210268517
H   H197      1.0  0.13926  0.96281  0.73388  0.5000 0.256729681
H   H198      1.0  0.36074  0.03719  0.23388  0.5000 0.256729681
H   H199      1.0  0.63926  0.53719  0.26612  0.5000 0.256729681
H   H200      1.0  0.86074  0.46281  0.76612  0.5000 0.256729681
C   C1        1.0  0.65460  0.99940  0.76240  1.0000 0.5059115142
C   C2        1.0  0.84540  0.00060  0.26240  1.0000 0.5059115142
C   C3        1.0  0.15460  0.50060  0.23760  1.0000 0.5059115142
C   C4        1.0  0.34540  0.49940  0.73760  1.0000 0.5059115142
C   C5        1.0  0.26750  0.90860  0.00330  1.0000 0.4842056632
C   C6        1.0  0.23250  0.09140  0.50330  1.0000 0.4842056632
C   C7        1.0  0.76750  0.59140  0.99670  1.0000 0.4842056632
C   C8        1.0  0.73250  0.40860  0.49670  1.0000 0.4842056632
C   C9        1.0  0.77640  0.10520  0.91960  1.0000 -0.0907282252
C   C10       1.0  0.72360  0.89480  0.41960  1.0000 -0.0907282252
C   C11       1.0  0.27640  0.39480  0.08040  1.0000 -0.0907282252
C   C12       1.0  0.22360  0.60520  0.58040  1.0000 -0.0907282252
C   C13       1.0  0.14430  0.84750  0.76360  1.0000 -0.0989044542
C   C14       1.0  0.35570  0.15250  0.26360  1.0000 -0.0989044542
C   C15       1.0  0.64430  0.65250  0.23640  1.0000 -0.0989044542
C   C16       1.0  0.85570  0.34750  0.73640  1.0000 -0.0989044542
C   C17       1.0  0.83160  0.10200  0.93608  1.0000 0.1721104092
C   C18       1.0  0.66840  0.89800  0.43608  1.0000 0.1721104092
C   C19       1.0  0.33160  0.39800  0.06392  1.0000 0.1721104092
C   C20       1.0  0.16840  0.60200  0.56392  1.0000 0.1721104092
C   C21       1.0  0.89410  0.10340  0.92418  1.0000 -0.1705515367
C   C22       1.0  0.60590  0.89660  0.42418  1.0000 -0.1705515367
C   C23       1.0  0.39410  0.39660  0.07582  1.0000 -0.1705515367
C   C24       1.0  0.10590  0.60340  0.57582  1.0000 -0.1705515367
C   C25       1.0  0.93380  0.11170  0.95269  1.0000 -0.1785310648
C   C26       1.0  0.56620  0.88830  0.45269  1.0000 -0.1877870764
C   C27       1.0  0.43380  0.38830  0.04731  1.0000 -0.1877870764
C   C28       1.0  0.06620  0.61170  0.54731  1.0000 -0.1877870764
C   C29       1.0  0.89590  0.11540  0.98227  1.0000 0.1721104092
C   C30       1.0  0.60410  0.88460  0.48227  1.0000 0.1779688054
C   C31       1.0  0.39590  0.38460  0.01773  1.0000 0.1721104092
C   C32       1.0  0.10410  0.61540  0.51773  1.0000 0.1721104092
C   C33       1.0  0.17120  0.03200  0.87694  1.0000 0.0718958058
C   C34       1.0  0.32880  0.96800  0.37694  1.0000 0.0718958058
C   C35       1.0  0.67120  0.46800  0.12306  1.0000 0.0718958058
C   C36       1.0  0.82880  0.53200  0.62306  1.0000 0.0718958058
C   C37       1.0  0.23370  0.02540  0.88650  1.0000 -0.2416863218
C   C38       1.0  0.26630  0.97460  0.38650  1.0000 -0.2416863218
C   C39       1.0  0.73370  0.47460  0.11350  1.0000 -0.2416863218
C   C40       1.0  0.76630  0.52540  0.61350  1.0000 -0.2450041324
C   C41       1.0  0.25060  0.03020  0.92080  1.0000 0.2317376339
C   C42       1.0  0.24940  0.96980  0.42080  1.0000 0.2317376339
C   C43       1.0  0.75060  0.46980  0.07920  1.0000 0.2317376339
C   C44       1.0  0.74940  0.53020  0.57920  1.0000 0.2317376339
C   C45       1.0  0.20510  0.04160  0.94547  1.0000 0.2210268517
C   C46       1.0  0.29490  0.95840  0.44547  1.0000 0.2210268517
C   C47       1.0  0.70510  0.45840  0.05453  1.0000 0.2210268517
C   C48       1.0  0.79490  0.54160  0.55453  1.0000 0.2210268517
C   C49       1.0  0.14260  0.04820  0.93591  1.0000 -0.2015964873
C   C50       1.0  0.35740  0.95180  0.43591  1.0000 -0.2015964873
C   C51       1.0  0.64260  0.45180  0.06409  1.0000 -0.2015964873
C   C52       1.0  0.85740  0.54820  0.56409  1.0000 -0.2015964873
C   C53       1.0  0.12570  0.04340  0.90160  1.0000 -0.1601048696
C   C54       1.0  0.37430  0.95660  0.40160  1.0000 -0.1601048696
C   C55       1.0  0.62570  0.45660  0.09840  1.0000 -0.1601048696
C   C56       1.0  0.87430  0.54340  0.59840  1.0000 -0.1601048696
C   C57       1.0  0.14760  0.96610  0.82920  1.0000 0.1779688054
C   C58       1.0  0.35240  0.03390  0.32920  1.0000 0.1779688054
C   C59       1.0  0.64760  0.53390  0.17080  1.0000 0.1779688054
C   C60       1.0  0.85240  0.46610  0.67080  1.0000 0.1779688054
C   C61       1.0  0.14430  0.85910  0.82450  1.0000 -0.1705515367
C   C62       1.0  0.35570  0.14090  0.32450  1.0000 -0.1705515367
C   C63       1.0  0.64430  0.64090  0.17550  1.0000 -0.1705515367
C   C64       1.0  0.85570  0.35910  0.67550  1.0000 -0.1705515367
C   C65       1.0  0.15090  0.90930  0.84788  1.0000 -0.1785310648
C   C66       1.0  0.34910  0.09070  0.34788  1.0000 -0.1785310648
C   C67       1.0  0.65090  0.59070  0.15212  1.0000 -0.1785310648
C   C68       1.0  0.84910  0.40930  0.65212  1.0000 -0.1785310648
C   C69       1.0  0.13700  0.88480  0.79130  1.0000 0.1779688054
C   C70       1.0  0.36300  0.11520  0.29130  1.0000 0.1779688054
C   C71       1.0  0.63700  0.61520  0.20870  1.0000 0.1779688054
C   C72       1.0  0.86300  0.38480  0.70870  1.0000 0.1779688054
C   C73       1.0  0.92030  0.11080  0.01640  1.0000 -0.0841927994
C   C74       1.0  0.57970  0.88920  0.51640  1.0000 -0.0841927994
C   C75       1.0  0.42030  0.38920  0.98360  1.0000 -0.0841927994
C   C76       1.0  0.07970  0.61080  0.48360  1.0000 -0.0841927994
C   C77       1.0  0.88340  0.11780  0.04655  1.0000 0.1721104092
C   C78       1.0  0.61660  0.88220  0.54655  1.0000 0.1779688054
C   C79       1.0  0.38340  0.38220  0.95345  1.0000 0.1721104092
C   C80       1.0  0.11660  0.61780  0.45345  1.0000 0.1721104092
C   C81       1.0  0.90610  0.10760  0.08030  1.0000 -0.1785310648
C   C82       1.0  0.59390  0.89240  0.58030  1.0000 -0.1877870764
C   C83       1.0  0.40610  0.39240  0.91970  1.0000 -0.1877870764
C   C84       1.0  0.09390  0.60760  0.41970  1.0000 -0.1877870764
C   C85       1.0  0.85370  0.09690  0.10190  1.0000 -0.1705515367
C   C86       1.0  0.64630  0.90310  0.60190  1.0000 -0.1785310648
C   C87       1.0  0.35370  0.40310  0.89810  1.0000 -0.1705515367
C   C88       1.0  0.14630  0.59690  0.39810  1.0000 -0.1785310648
C   C89       1.0  0.79860  0.10050  0.08162  1.0000 0.1721104092
C   C90       1.0  0.70140  0.89950  0.58162  1.0000 0.1779688054
C   C91       1.0  0.29860  0.39950  0.91838  1.0000 0.1721104092
C   C92       1.0  0.20140  0.60050  0.41838  1.0000 0.1721104092
C   C93       1.0  0.15840  0.98500  0.62687  1.0000 0.0884025345
C   C94       1.0  0.34160  0.01500  0.12687  1.0000 0.0884025345
C   C95       1.0  0.65840  0.51500  0.37313  1.0000 0.0884025345
C   C96       1.0  0.84160  0.48500  0.87313  1.0000 0.0884025345
C   C97       1.0  0.21870  0.00000  0.61607  1.0000 -0.2578848526
C   C98       1.0  0.28130  0.00000  0.11607  1.0000 -0.2578848526
C   C99       1.0  0.71870  0.50000  0.38393  1.0000 -0.2578848526
C   C100      1.0  0.78130  0.50000  0.88393  1.0000 -0.2578848526
C   C101      1.0  0.23390  0.99690  0.58150  1.0000 0.2317376339
C   C102      1.0  0.26610  0.00310  0.08150  1.0000 0.2317376339
C   C103      1.0  0.73390  0.50310  0.41850  1.0000 0.2317376339
C   C104      1.0  0.76610  0.49690  0.91850  1.0000 0.2317376339
C   C105      1.0  0.18880  0.97890  0.55774  1.0000 0.1989128459
C   C106      1.0  0.31120  0.02110  0.05774  1.0000 0.1989128459
C   C107      1.0  0.68880  0.52110  0.44226  1.0000 0.1989128459
C   C108      1.0  0.81120  0.47890  0.94226  1.0000 0.1989128459
C   C109      1.0  0.12850  0.96400  0.56855  1.0000 -0.1877870764
C   C110      1.0  0.37150  0.03600  0.06855  1.0000 -0.1877870764
C   C111      1.0  0.62850  0.53600  0.43145  1.0000 -0.1877870764
C   C112      1.0  0.87150  0.46400  0.93145  1.0000 -0.1877870764
C   C113      1.0  0.11320  0.96710  0.60310  1.0000 -0.1705515367
C   C114      1.0  0.38680  0.03290  0.10310  1.0000 -0.1705515367
C   C115      1.0  0.61320  0.53290  0.39690  1.0000 -0.1705515367
C   C116      1.0  0.88680  0.46710  0.89690  1.0000 -0.1705515367
C   C117      1.0  0.12040  0.16820  0.74500  1.0000 -0.0907282252
C   C118      1.0  0.37960  0.83180  0.24500  1.0000 -0.0907282252
C   C119      1.0  0.62040  0.33180  0.25500  1.0000 -0.0907282252
C   C120      1.0  0.87960  0.66820  0.75500  1.0000 -0.0907282252
C   C121      1.0  0.74060  0.09920  0.09740  1.0000 -0.0907282252
C   C122      1.0  0.75940  0.90080  0.59740  1.0000 -0.0907282252
C   C123      1.0  0.24060  0.40080  0.90260  1.0000 -0.0907282252
C   C124      1.0  0.25940  0.59920  0.40260  1.0000 -0.0907282252
C   C125      1.0  0.68560  0.10430  0.07747  1.0000 0.1779688054
C   C126      1.0  0.81440  0.89570  0.57747  1.0000 0.1779688054
C   C127      1.0  0.18560  0.39570  0.92253  1.0000 0.1779688054
C   C128      1.0  0.31440  0.60430  0.42253  1.0000 0.1779688054
C   C129      1.0  0.62240  0.09600  0.08767  1.0000 -0.1705515367
C   C130      1.0  0.87760  0.90400  0.58767  1.0000 -0.1705515367
C   C131      1.0  0.12240  0.40400  0.91233  1.0000 -0.1705515367
C   C132      1.0  0.37760  0.59600  0.41233  1.0000 -0.1705515367
C   C133      1.0  0.58420  0.10110  0.05823  1.0000 -0.1785310648
C   C134      1.0  0.91580  0.89890  0.55823  1.0000 -0.1785310648
C   C135      1.0  0.08420  0.39890  0.94177  1.0000 -0.1785310648
C   C136      1.0  0.41580  0.60110  0.44177  1.0000 -0.1785310648
C   C137      1.0  0.62370  0.11250  0.02977  1.0000 0.1779688054
C   C138      1.0  0.87630  0.88750  0.52977  1.0000 0.1779688054
C   C139      1.0  0.12370  0.38750  0.97023  1.0000 0.1779688054
C   C140      1.0  0.37630  0.61250  0.47023  1.0000 0.1779688054
C   C141      1.0  0.13950  0.04850  0.67960  1.0000 0.1721104092
C   C142      1.0  0.36050  0.95150  0.17960  1.0000 0.1721104092
C   C143      1.0  0.63950  0.45150  0.32040  1.0000 0.1721104092
C   C144      1.0  0.86050  0.54850  0.82040  1.0000 0.1721104092
C   C145      1.0  0.12700  0.15560  0.68030  1.0000 -0.1785310648
C   C146      1.0  0.37300  0.84440  0.18030  1.0000 -0.1785310648
C   C147      1.0  0.62700  0.34440  0.31970  1.0000 -0.1785310648
C   C148      1.0  0.87300  0.65560  0.81970  1.0000 -0.1785310648
C   C149      1.0  0.13530  0.10280  0.65866  1.0000 -0.1705515367
C   C150      1.0  0.36470  0.89720  0.15866  1.0000 -0.1705515367
C   C151      1.0  0.63530  0.39720  0.34134  1.0000 -0.1705515367
C   C152      1.0  0.86470  0.60280  0.84134  1.0000 -0.1705515367
C   C153      1.0  0.12600  0.13400  0.71469  1.0000 0.1721104092
C   C154      1.0  0.37400  0.86600  0.21469  1.0000 0.1721104092
C   C155      1.0  0.62600  0.36600  0.28531  1.0000 0.1721104092
C   C156      1.0  0.87400  0.63400  0.78531  1.0000 0.1721104092
C   C157      1.0  0.12990  0.23580  0.73979  1.0000 0.0802345058
C   C158      1.0  0.37010  0.76420  0.23979  1.0000 0.0802345058
C   C159      1.0  0.62990  0.26420  0.26021  1.0000 0.0802345058
C   C160      1.0  0.87010  0.73580  0.76021  1.0000 0.0802345058
C   C161      1.0  0.18580  0.26810  0.73509  1.0000 -0.2416863218
C   C162      1.0  0.31420  0.73190  0.23509  1.0000 -0.2416863218
C   C163      1.0  0.68580  0.23190  0.26491  1.0000 -0.2416863218
C   C164      1.0  0.81420  0.76810  0.76491  1.0000 -0.2416863218
C   C165      1.0  0.18510  0.33260  0.72978  1.0000 0.2123636007
C   C166      1.0  0.31490  0.66740  0.22978  1.0000 0.2123636007
C   C167      1.0  0.68510  0.16740  0.27022  1.0000 0.2123636007
C   C168      1.0  0.81490  0.83260  0.77022  1.0000 0.2123636007
C   C169      1.0  0.12840  0.36480  0.72917  1.0000 0.2210268517
C   C170      1.0  0.37160  0.63520  0.22917  1.0000 0.2210268517
C   C171      1.0  0.62840  0.13520  0.27083  1.0000 0.2210268517
C   C172      1.0  0.87160  0.86480  0.77083  1.0000 0.2210268517
C   C173      1.0  0.07240  0.33250  0.73390  1.0000 -0.2015964873
C   C174      1.0  0.42760  0.66750  0.23390  1.0000 -0.2015964873
C   C175      1.0  0.57240  0.16750  0.26610  1.0000 -0.2015964873
C   C176      1.0  0.92760  0.83250  0.76610  1.0000 -0.2015964873
C   C177      1.0  0.07310  0.26800  0.73920  1.0000 -0.1601048696
C   C178      1.0  0.42690  0.73200  0.23920  1.0000 -0.1601048696
C   C179      1.0  0.57310  0.23200  0.26080  1.0000 -0.1601048696
C   C180      1.0  0.92690  0.76800  0.76080  1.0000 -0.1601048696
C   C181      1.0  0.60020  0.12130  0.99740  1.0000 -0.0989044542
C   C182      1.0  0.89980  0.87870  0.49740  1.0000 -0.0989044542
C   C183      1.0  0.10020  0.37870  0.00260  1.0000 -0.0989044542
C   C184      1.0  0.39980  0.62130  0.50260  1.0000 -0.0989044542
C   C185      1.0  0.63620  0.12140  0.96888  1.0000 0.1721104092
C   C186      1.0  0.86380  0.87860  0.46888  1.0000 0.1721104092
C   C187      1.0  0.13620  0.37860  0.03112  1.0000 0.1721104092
C   C188      1.0  0.36380  0.62140  0.53112  1.0000 0.1721104092
C   C189      1.0  0.61190  0.12280  0.93529  1.0000 -0.1785310648
C   C190      1.0  0.88810  0.87720  0.43529  1.0000 -0.1785310648
C   C191      1.0  0.11190  0.37720  0.06471  1.0000 -0.1785310648
C   C192      1.0  0.38810  0.62280  0.56471  1.0000 -0.1785310648
C   C193      1.0  0.66270  0.11640  0.91234  1.0000 -0.1601048696
C   C194      1.0  0.83730  0.88360  0.41234  1.0000 -0.1601048696
C   C195      1.0  0.16270  0.38360  0.08766  1.0000 -0.1601048696
C   C196      1.0  0.33730  0.61640  0.58766  1.0000 -0.1601048696
C   C197      1.0  0.71830  0.11110  0.93176  1.0000 0.1721104092
C   C198      1.0  0.78170  0.88890  0.43176  1.0000 0.1721104092
C   C199      1.0  0.21830  0.38890  0.06824  1.0000 0.1721104092
C   C200      1.0  0.28170  0.61110  0.56824  1.0000 0.1721104092
C   C201      1.0  0.13780  0.77940  0.77300  1.0000 0.0884025345
C   C202      1.0  0.36220  0.22060  0.27300  1.0000 0.0884025345
C   C203      1.0  0.63780  0.72060  0.22700  1.0000 0.0884025345
C   C204      1.0  0.86220  0.27940  0.72700  1.0000 0.0884025345
C   C205      1.0  0.19290  0.74920  0.76350  1.0000 -0.2416863218
C   C206      1.0  0.30710  0.25080  0.26350  1.0000 -0.2416863218
C   C207      1.0  0.69290  0.75080  0.23650  1.0000 -0.2416863218
C   C208      1.0  0.80710  0.24920  0.73650  1.0000 -0.2416863218
C   C209      1.0  0.19550  0.68400  0.76310  1.0000 0.2210268517
C   C210      1.0  0.30450  0.31600  0.26310  1.0000 0.2210268517
C   C211      1.0  0.69550  0.81600  0.23690  1.0000 0.2210268517
C   C212      1.0  0.80450  0.18400  0.73690  1.0000 0.2210268517
C   C213      1.0  0.14300  0.64910  0.77230  1.0000 0.1721104092
C   C214      1.0  0.35700  0.35090  0.27230  1.0000 0.1721104092
C   C215      1.0  0.64300  0.85090  0.22770  1.0000 0.1721104092
C   C216      1.0  0.85700  0.14910  0.72770  1.0000 0.1721104092
C   C217      1.0  0.08790  0.67940  0.78180  1.0000 -0.1877870764
C   C218      1.0  0.41210  0.32060  0.28180  1.0000 -0.1785310648
C   C219      1.0  0.58790  0.82060  0.21820  1.0000 -0.1785310648
C   C220      1.0  0.91210  0.17940  0.71820  1.0000 -0.1877870764
C   C221      1.0  0.08530  0.74460  0.78210  1.0000 -0.1877870764
C   C222      1.0  0.41470  0.25540  0.28210  1.0000 -0.1877870764
C   C223      1.0  0.58530  0.75540  0.21790  1.0000 -0.1877870764
C   C224      1.0  0.91470  0.24460  0.71790  1.0000 -0.1877870764
C   C225      1.0  0.78710  0.09200  0.88161  1.0000 0.0802345058
C   C226      1.0  0.71290  0.90800  0.38161  1.0000 0.0802345058
C   C227      1.0  0.28710  0.40800  0.11839  1.0000 0.0802345058
C   C228      1.0  0.21290  0.59200  0.61839  1.0000 0.0802345058
C   C229      1.0  0.77900  0.02970  0.87207  1.0000 -0.2578848526
C   C230      1.0  0.72100  0.97030  0.37207  1.0000 -0.2578848526
C   C231      1.0  0.27900  0.47030  0.12793  1.0000 -0.2578848526
C   C232      1.0  0.22100  0.52970  0.62793  1.0000 -0.2578848526
C   C233      1.0  0.78030  0.01310  0.83766  1.0000 0.2317376339
C   C234      1.0  0.71970  0.98690  0.33766  1.0000 0.2317376339
C   C235      1.0  0.28030  0.48690  0.16234  1.0000 0.2317376339
C   C236      1.0  0.21970  0.51310  0.66234  1.0000 0.2317376339
C   C237      1.0  0.78980  0.05880  0.81280  1.0000 0.2210268517
C   C238      1.0  0.71020  0.94120  0.31280  1.0000 0.2210268517
C   C239      1.0  0.28980  0.44120  0.18720  1.0000 0.2210268517
C   C240      1.0  0.21020  0.55880  0.68720  1.0000 0.2210268517
C   C241      1.0  0.79790  0.12110  0.82234  1.0000 -0.1877870764
C   C242      1.0  0.70210  0.87890  0.32234  1.0000 -0.1877870764
C   C243      1.0  0.29790  0.37890  0.17766  1.0000 -0.1877870764
C   C244      1.0  0.20210  0.62110  0.67766  1.0000 -0.1877870764
C   C245      1.0  0.79650  0.13770  0.85675  1.0000 -0.1705515367
C   C246      1.0  0.70350  0.86230  0.35675  1.0000 -0.1705515367
C   C247      1.0  0.29650  0.36230  0.14325  1.0000 -0.1705515367
C   C248      1.0  0.20350  0.63770  0.64325  1.0000 -0.1705515367
C   C249      1.0  0.13530  0.14040  0.77624  1.0000 0.1721104092
C   C250      1.0  0.36470  0.85960  0.27624  1.0000 0.1721104092
C   C251      1.0  0.63530  0.35960  0.22376  1.0000 0.1721104092
C   C252      1.0  0.86470  0.64040  0.72376  1.0000 0.1721104092
C   C253      1.0  0.14860  0.18000  0.80410  1.0000 -0.1877870764
C   C254      1.0  0.35140  0.82000  0.30410  1.0000 -0.1877870764
C   C255      1.0  0.64860  0.32000  0.19590  1.0000 -0.1785310648
C   C256      1.0  0.85140  0.68000  0.69590  1.0000 -0.1877870764
C   C257      1.0  0.15170  0.07910  0.82310  1.0000 0.1779688054
C   C258      1.0  0.34830  0.92090  0.32310  1.0000 0.1721104092
C   C259      1.0  0.65170  0.42090  0.17690  1.0000 0.1721104092
C   C260      1.0  0.84830  0.57910  0.67690  1.0000 0.1779688054
C   C261      1.0  0.15870  0.14210  0.83306  1.0000 -0.1785310648
C   C262      1.0  0.34130  0.85790  0.33306  1.0000 -0.1785310648
C   C263      1.0  0.65870  0.35790  0.16694  1.0000 -0.1785310648
C   C264      1.0  0.84130  0.64210  0.66694  1.0000 -0.1785310648
C   C265      1.0  0.15570  0.02330  0.84130  1.0000 -0.0907282252
C   C266      1.0  0.34430  0.97670  0.34130  1.0000 -0.0907282252
C   C267      1.0  0.65570  0.47670  0.15870  1.0000 -0.0907282252
C   C268      1.0  0.84430  0.52330  0.65870  1.0000 -0.0907282252
C   C269      1.0  0.13450  0.86720  0.73041  1.0000 0.1779688054
C   C270      1.0  0.36550  0.13280  0.23041  1.0000 0.1779688054
C   C271      1.0  0.63450  0.63280  0.26959  1.0000 0.1779688054
C   C272      1.0  0.86550  0.36720  0.76959  1.0000 0.1779688054
C   C273      1.0  0.14450  0.93280  0.68420  1.0000 0.1896980703
C   C274      1.0  0.35550  0.06720  0.18420  1.0000 0.1896980703
C   C275      1.0  0.64450  0.56720  0.31580  1.0000 0.1896980703
C   C276      1.0  0.85550  0.43280  0.81580  1.0000 0.1896980703
C   C277      1.0  0.13660  0.82970  0.70050  1.0000 -0.1705515367
C   C278      1.0  0.36340  0.17030  0.20050  1.0000 -0.1705515367
C   C279      1.0  0.63660  0.67030  0.29950  1.0000 -0.1705515367
C   C280      1.0  0.86340  0.32970  0.79950  1.0000 -0.1705515367
C   C281      1.0  0.14280  0.87020  0.67191  1.0000 -0.1705515367
C   C282      1.0  0.35720  0.12980  0.17191  1.0000 -0.1705515367
C   C283      1.0  0.64280  0.62980  0.32809  1.0000 -0.1705515367
C   C284      1.0  0.85720  0.37020  0.82809  1.0000 -0.1705515367
C   C285      1.0  0.98520  0.11020  0.02110  1.0000 0.0802345058
C   C286      1.0  0.51480  0.88980  0.52110  1.0000 0.0802345058
C   C287      1.0  0.48520  0.38980  0.97890  1.0000 0.0802345058
C   C288      1.0  0.01480  0.61020  0.47890  1.0000 0.0802345058
C   C289      1.0  0.01830  0.05520  0.01480  1.0000 -0.2450041324
C   C290      1.0  0.48170  0.94480  0.51480  1.0000 -0.2416863218
C   C291      1.0  0.51830  0.44480  0.98520  1.0000 -0.2416863218
C   C292      1.0  0.98170  0.55520  0.48520  1.0000 -0.2416863218
C   C293      1.0  0.08340  0.05500  0.01670  1.0000 0.2398100775
C   C294      1.0  0.41660  0.94500  0.51670  1.0000 0.2398100775
C   C295      1.0  0.58340  0.44500  0.98330  1.0000 0.2398100775
C   C296      1.0  0.91660  0.55500  0.48330  1.0000 0.2398100775
C   C297      1.0  0.11550  0.10980  0.02480  1.0000 0.1721104092
C   C298      1.0  0.38450  0.89020  0.52480  1.0000 0.1721104092
C   C299      1.0  0.61550  0.39020  0.97520  1.0000 0.1721104092
C   C300      1.0  0.88450  0.60980  0.47520  1.0000 0.1721104092
C   C301      1.0  0.08240  0.16480  0.03110  1.0000 -0.1785310648
C   C302      1.0  0.41760  0.83520  0.53110  1.0000 -0.1785310648
C   C303      1.0  0.58240  0.33520  0.96890  1.0000 -0.1785310648
C   C304      1.0  0.91760  0.66480  0.46890  1.0000 -0.1785310648
C   C305      1.0  0.01730  0.16500  0.02930  1.0000 -0.1785310648
C   C306      1.0  0.48270  0.83500  0.52930  1.0000 -0.1785310648
C   C307      1.0  0.51730  0.33500  0.97070  1.0000 -0.1785310648
C   C308      1.0  0.98270  0.66500  0.47070  1.0000 -0.1785310648
C   C309      1.0  0.13930  0.99030  0.66530  1.0000 -0.1073974427
C   C310      1.0  0.36070  0.00970  0.16530  1.0000 -0.1073974427
C   C311      1.0  0.63930  0.50970  0.33470  1.0000 -0.1073974427
C   C312      1.0  0.86070  0.49030  0.83470  1.0000 -0.1073974427
C   C313      1.0  0.73740  0.08180  0.13303  1.0000 0.0718958058
C   C314      1.0  0.76260  0.91820  0.63303  1.0000 0.0718958058
C   C315      1.0  0.23740  0.41820  0.86697  1.0000 0.0718958058
C   C316      1.0  0.26260  0.58180  0.36697  1.0000 0.0718958058
C   C317      1.0  0.74890  0.02040  0.14315  1.0000 -0.2416863218
C   C318      1.0  0.75110  0.97960  0.64315  1.0000 -0.2416863218
C   C319      1.0  0.24890  0.47960  0.85685  1.0000 -0.2416863218
C   C320      1.0  0.25110  0.52040  0.35685  1.0000 -0.2416863218
C   C321      1.0  0.74120  0.00320  0.17723  1.0000 0.2210268517
C   C322      1.0  0.75880  0.99680  0.67723  1.0000 0.2123636007
C   C323      1.0  0.24120  0.49680  0.82277  1.0000 0.2123636007
C   C324      1.0  0.25880  0.50320  0.32277  1.0000 0.2123636007
C   C325      1.0  0.72200  0.04750  0.20117  1.0000 0.2317376339
C   C326      1.0  0.77800  0.95250  0.70117  1.0000 0.2317376339
C   C327      1.0  0.22200  0.45250  0.79883  1.0000 0.2317376339
C   C328      1.0  0.27800  0.54750  0.29883  1.0000 0.2317376339
C   C329      1.0  0.71050  0.10890  0.19105  1.0000 -0.2015964873
C   C330      1.0  0.78950  0.89110  0.69105  1.0000 -0.2015964873
C   C331      1.0  0.21050  0.39110  0.80895  1.0000 -0.2015964873
C   C332      1.0  0.28950  0.60890  0.30895  1.0000 -0.2015964873
C   C333      1.0  0.71820  0.12610  0.15697  1.0000 -0.1522620469
C   C334      1.0  0.78180  0.87390  0.65697  1.0000 -0.1522620469
C   C335      1.0  0.21820  0.37390  0.84303  1.0000 -0.1522620469
C   C336      1.0  0.28180  0.62610  0.34303  1.0000 -0.1522620469
C   C337      1.0  0.52950  0.12150  0.99165  1.0000 0.1021770276
C   C338      1.0  0.97050  0.87850  0.49165  1.0000 0.1021770276
C   C339      1.0  0.02950  0.37850  0.00835  1.0000 0.1021770276
C   C340      1.0  0.47050  0.62150  0.50835  1.0000 0.1021770276
C   C341      1.0  0.49820  0.06450  0.98946  1.0000 -0.2416863218
C   C342      1.0  0.00180  0.93550  0.48946  1.0000 -0.2416863218
C   C343      1.0  0.99820  0.43550  0.01054  1.0000 -0.2416863218
C   C344      1.0  0.50180  0.56450  0.51054  1.0000 -0.2416863218
C   C345      1.0  0.43370  0.06330  0.98414  1.0000 0.2210268517
C   C346      1.0  0.06630  0.93670  0.48414  1.0000 0.2210268517
C   C347      1.0  0.93370  0.43670  0.01586  1.0000 0.2210268517
C   C348      1.0  0.56630  0.56330  0.51586  1.0000 0.2210268517
C   C349      1.0  0.40060  0.11910  0.98100  1.0000 0.1989128459
C   C350      1.0  0.09940  0.88090  0.48100  1.0000 0.1989128459
C   C351      1.0  0.90060  0.38090  0.01900  1.0000 0.1989128459
C   C352      1.0  0.59940  0.61910  0.51900  1.0000 0.1989128459
C   C353      1.0  0.43190  0.17620  0.98320  1.0000 -0.1877870764
C   C354      1.0  0.06810  0.82380  0.48320  1.0000 -0.1877870764
C   C355      1.0  0.93190  0.32380  0.01680  1.0000 -0.1877870764
C   C356      1.0  0.56810  0.67620  0.51680  1.0000 -0.1877870764
C   C357      1.0  0.49630  0.17740  0.98850  1.0000 -0.1785310648
C   C358      1.0  0.00370  0.82260  0.48850  1.0000 -0.1785310648
C   C359      1.0  0.99630  0.32260  0.01150  1.0000 -0.1785310648
C   C360      1.0  0.50370  0.67740  0.51150  1.0000 -0.1785310648
N   N1        1.0  0.83270  0.10940  0.97197  1.0000 -0.3014220521
N   N2        1.0  0.66730  0.89060  0.47197  1.0000 -0.3014220521
N   N3        1.0  0.33270  0.39060  0.02803  1.0000 -0.3014220521
N   N4        1.0  0.16730  0.60940  0.52803  1.0000 -0.3014220521
N   N5        1.0  0.13900  0.95100  0.79420  1.0000 -0.3332928718
N   N6        1.0  0.36100  0.04900  0.29420  1.0000 -0.3332928718
N   N7        1.0  0.63900  0.54900  0.20580  1.0000 -0.3365709186
N   N8        1.0  0.86100  0.45100  0.70580  1.0000 -0.3365709186
N   N9        1.0  0.81690  0.11350  0.04742  1.0000 -0.3097127579
N   N10       1.0  0.68310  0.88650  0.54742  1.0000 -0.3097127579
N   N11       1.0  0.31690  0.38650  0.95258  1.0000 -0.3097127579
N   N12       1.0  0.18310  0.61350  0.45258  1.0000 -0.3097127579
N   N13       1.0  0.68640  0.11450  0.04169  1.0000 -0.3097127579
N   N14       1.0  0.81360  0.88550  0.54169  1.0000 -0.3097127579
N   N15       1.0  0.18640  0.38550  0.95831  1.0000 -0.3097127579
N   N16       1.0  0.31360  0.61450  0.45831  1.0000 -0.3097127579
N   N17       1.0  0.13380  0.06780  0.71422  1.0000 -0.3097127579
N   N18       1.0  0.36620  0.93220  0.21422  1.0000 -0.317069903
N   N19       1.0  0.63380  0.43220  0.28578  1.0000 -0.317069903
N   N20       1.0  0.86620  0.56780  0.78578  1.0000 -0.317069903
N   N21       1.0  0.70190  0.11410  0.96674  1.0000 -0.3097127579
N   N22       1.0  0.79810  0.88590  0.46674  1.0000 -0.3097127579
N   N23       1.0  0.20190  0.38590  0.03326  1.0000 -0.3097127579
N   N24       1.0  0.29810  0.61410  0.53326  1.0000 -0.3097127579
N   N25       1.0  0.13720  0.07800  0.78799  1.0000 -0.3014220521
N   N26       1.0  0.36280  0.92200  0.28799  1.0000 -0.3014220521
N   N27       1.0  0.63720  0.42200  0.21201  1.0000 -0.3014220521
N   N28       1.0  0.86280  0.57800  0.71201  1.0000 -0.3014220521
N   N29       1.0  0.13940  0.93090  0.72040  1.0000 -0.3097127579
N   N30       1.0  0.36060  0.06910  0.22040  1.0000 -0.3097127579
N   N31       1.0  0.63940  0.56910  0.27960  1.0000 -0.3097127579
N   N32       1.0  0.86060  0.43090  0.77960  1.0000 -0.3097127579
O   O1        1.0  0.77580  0.95290  0.82509  1.0000 -0.5301692536
O   O2        1.0  0.72420  0.04710  0.32509  1.0000 -0.5301692536
O   O3        1.0  0.27580  0.54710  0.17491  1.0000 -0.5399863869
O   O4        1.0  0.22420  0.45290  0.67491  1.0000 -0.5399863869
O   O5        1.0  0.67940  0.05100  0.74689  1.0000 -0.5488049388
O   O6        1.0  0.82060  0.94900  0.24689  1.0000 -0.5488049388
O   O7        1.0  0.17940  0.44900  0.25311  1.0000 -0.5488049388
O   O8        1.0  0.32060  0.55100  0.75311  1.0000 -0.5488049388
O   O9        1.0  0.24860  0.64920  0.75900  1.0000 -0.5117187757
O   O10       1.0  0.25140  0.35080  0.25900  1.0000 -0.5117187757
O   O11       1.0  0.74860  0.85080  0.24100  1.0000 -0.5117187757
O   O12       1.0  0.75140  0.14920  0.74100  1.0000 -0.5117187757
O   O13       1.0  0.79310  0.03760  0.77941  1.0000 -0.6206145957
O   O14       1.0  0.70690  0.96240  0.27941  1.0000 -0.6206145957
O   O15       1.0  0.29310  0.46240  0.22059  1.0000 -0.6206145957
O   O16       1.0  0.20690  0.53760  0.72059  1.0000 -0.6206145957
O   O17       1.0  0.31110  0.02500  0.92973  1.0000 -0.4802214057
O   O18       1.0  0.18890  0.97500  0.42973  1.0000 -0.4802214057
O   O19       1.0  0.81110  0.47500  0.07027  1.0000 -0.4802214057
O   O20       1.0  0.68890  0.52500  0.57027  1.0000 -0.4802214057
O   O21       1.0  0.12120  0.00400  0.01660  1.0000 -0.4993307859
O   O22       1.0  0.37880  0.99600  0.51660  1.0000 -0.4993307859
O   O23       1.0  0.62120  0.49600  0.98340  1.0000 -0.4993307859
O   O24       1.0  0.87880  0.50400  0.48340  1.0000 -0.4993307859
O   O25       1.0  0.29110  0.01130  0.56690  1.0000 -0.5488049388
O   O26       1.0  0.20890  0.98870  0.06690  1.0000 -0.5399863869
O   O27       1.0  0.79110  0.48870  0.43310  1.0000 -0.5399863869
O   O28       1.0  0.70890  0.51130  0.93310  1.0000 -0.5399863869
O   O29       1.0  0.18170  0.09740  0.03156  1.0000 -0.5488049388
O   O30       1.0  0.31830  0.90260  0.53156  1.0000 -0.5488049388
O   O31       1.0  0.68170  0.40260  0.96844  1.0000 -0.555810228
O   O32       1.0  0.81830  0.59740  0.46844  1.0000 -0.5488049388
O   O33       1.0  0.21230  0.93250  0.01210  1.0000 -0.5212412228
O   O34       1.0  0.28770  0.06750  0.51210  1.0000 -0.5212412228
O   O35       1.0  0.71230  0.56750  0.98790  1.0000 -0.5301692536
O   O36       1.0  0.78770  0.43250  0.48790  1.0000 -0.5301692536
O   O37       1.0  0.75500  0.94380  0.18923  1.0000 -0.5301692536
O   O38       1.0  0.74500  0.05620  0.68923  1.0000 -0.5301692536
O   O39       1.0  0.25500  0.55620  0.81077  1.0000 -0.5301692536
O   O40       1.0  0.24500  0.44380  0.31077  1.0000 -0.5301692536
O   O41       1.0  0.22740  0.04340  0.97848  1.0000 -0.6050335914
O   O42       1.0  0.27260  0.95660  0.47848  1.0000 -0.6008680314
O   O43       1.0  0.72740  0.45660  0.02152  1.0000 -0.6050335914
O   O44       1.0  0.77260  0.54340  0.52152  1.0000 -0.6008680314
O   O45       1.0  0.71530  0.02180  0.23324  1.0000 -0.6206145957
O   O46       1.0  0.78470  0.97820  0.73324  1.0000 -0.6206145957
O   O47       1.0  0.21530  0.47820  0.76676  1.0000 -0.6206145957
O   O48       1.0  0.28470  0.52180  0.26676  1.0000 -0.6206145957
O   O49       1.0  0.15160  0.58440  0.77630  1.0000 -0.5301692536
O   O50       1.0  0.34840  0.41560  0.27630  1.0000 -0.5301692536
O   O51       1.0  0.65160  0.91560  0.22370  1.0000 -0.5301692536
O   O52       1.0  0.84840  0.08440  0.72370  1.0000 -0.5301692536
O   O53       1.0  0.39990  0.01050  0.98280  1.0000 -0.4934616337
O   O54       1.0  0.10010  0.98950  0.48280  1.0000 -0.4934616337
O   O55       1.0  0.89990  0.48950  0.01720  1.0000 -0.4993307859
O   O56       1.0  0.60010  0.51050  0.51720  1.0000 -0.4934616337
O   O57       1.0  0.21180  0.96750  0.52430  1.0000 -0.6508984417
O   O58       1.0  0.28820  0.03250  0.02430  1.0000 -0.6508984417
O   O59       1.0  0.71180  0.53250  0.47570  1.0000 -0.6508984417
O   O60       1.0  0.78820  0.46750  0.97570  1.0000 -0.6508984417
O   O61       1.0  0.33810  0.11250  0.97591  1.0000 -0.5117187757
O   O62       1.0  0.16190  0.88750  0.47591  1.0000 -0.5212412228
O   O63       1.0  0.83810  0.38750  0.02409  1.0000 -0.5117187757
O   O64       1.0  0.66190  0.61250  0.52409  1.0000 -0.5117187757
O   O65       1.0  0.69350  0.96000  0.77918  1.0000 -0.5710335374
O   O66       1.0  0.80650  0.04000  0.27918  1.0000 -0.5710335374
O   O67       1.0  0.19350  0.54000  0.22082  1.0000 -0.5710335374
O   O68       1.0  0.30650  0.46000  0.72082  1.0000 -0.5710335374
O   O69       1.0  0.23370  0.37330  0.72645  1.0000 -0.466020301
O   O70       1.0  0.26630  0.62670  0.22645  1.0000 -0.466020301
O   O71       1.0  0.73370  0.12670  0.27355  1.0000 -0.466020301
O   O72       1.0  0.76630  0.87330  0.77355  1.0000 -0.466020301
O   O73       1.0  0.30540  0.93780  0.97930  1.0000 -0.5928612352
O   O74       1.0  0.19460  0.06220  0.47930  1.0000 -0.5928612352
O   O75       1.0  0.80540  0.56220  0.02070  1.0000 -0.5928612352
O   O76       1.0  0.69460  0.43780  0.52070  1.0000 -0.5928612352
O   O77       1.0  0.13670  0.42630  0.72334  1.0000 -0.5117187757
O   O78       1.0  0.36330  0.57370  0.22334  1.0000 -0.5117187757
O   O79       1.0  0.63670  0.07370  0.27666  1.0000 -0.5117187757
O   O80       1.0  0.86330  0.92630  0.77666  1.0000 -0.5117187757
