# DDEC6 charges by PACMAN v1.1 (https://github.com/mtap-research/PACMAN-charge/)
data_jp0c05314_si_002_FSR_pacman
_symmetry_space_group_name_H-M   'P 1'
_cell_length_a   14.96790000
_cell_length_b   14.96790000
_cell_length_c   19.16670000
_cell_angle_alpha   90.00000000
_cell_angle_beta   90.00000000
_cell_angle_gamma   90.00000000
_symmetry_Int_Tables_number   1
_chemical_formula_structural   ZnH8C11N(O2F)2
_chemical_formula_sum   'Zn8 H64 C88 N8 O32 F16'
_cell_volume   4294.06971746
_cell_formula_units_Z   8
loop_
 _symmetry_equiv_pos_site_id
 _symmetry_equiv_pos_as_xyz
  1  'x, y, z'
loop_
 _atom_site_type_symbol
 _atom_site_label
 _atom_site_symmetry_multiplicity
 _atom_site_fract_x
 _atom_site_fract_y
 _atom_site_fract_z
 _atom_site_occupancy
 _atom_site_charge
Zn  Zn1  1  0.00000000  0.50000000  0.81570000  1.0 0.6495489888
Zn  Zn2  1  0.00000000  0.50000000  0.66193000  1.0 0.6558763794
Zn  Zn3  1  0.50000000  0.00000000  0.68430000  1.0 0.6495489888
Zn  Zn4  1  0.50000000  0.00000000  0.83807000  1.0 0.6558763794
Zn  Zn5  1  0.50000000  0.00000000  0.18430000  1.0 0.6495489888
Zn  Zn6  1  0.50000000  0.00000000  0.33807000  1.0 0.6558763794
Zn  Zn7  1  0.00000000  0.50000000  0.31570000  1.0 0.6495489888
Zn  Zn8  1  0.00000000  0.50000000  0.16193000  1.0 0.6558763794
H  H1  1  0.09520000  0.59820000  0.92870000  0.25 0.0603549535
H  H2  1  0.13550000  0.49960000  0.93780000  0.25 0.0603549535
H  H3  1  0.13280000  0.52410000  0.05210000  0.25 0.0603549535
H  H4  1  0.07320000  0.61230000  0.04280000  0.25 0.0680647753
H  H5  1  0.03450000  0.63290000  0.92530000  0.25 0.0603549535
H  H6  1  0.11880000  0.56750000  0.93290000  0.25 0.0603549535
H  H7  1  0.01580000  0.63790000  0.03950000  0.25 0.0603549535
H  H8  1  0.10960000  0.58700000  0.04690000  0.25 0.0603549535
H  H9  1  0.96280000  0.63020000  0.92780000  0.25 0.0603549535
H  H10  1  0.06870000  0.61580000  0.93430000  0.25 0.0603549535
H  H11  1  0.05280000  0.62440000  0.05120000  0.25 0.0680647753
H  H12  1  0.94590000  0.62310000  0.04460000  0.25 0.0603549535
H  H13  1  0.90480000  0.40180000  0.92870000  0.25 0.0603549535
H  H14  1  0.86450000  0.50040000  0.93780000  0.25 0.0603549535
H  H15  1  0.86720000  0.47590000  0.05210000  0.25 0.0603549535
H  H16  1  0.92680000  0.38770000  0.04280000  0.25 0.0680647753
H  H17  1  0.96550000  0.36710000  0.92530000  0.25 0.0603549535
H  H18  1  0.88120000  0.43250000  0.93290000  0.25 0.0603549535
H  H19  1  0.98420000  0.36210000  0.03950000  0.25 0.0603549535
H  H20  1  0.89040000  0.41300000  0.04690000  0.25 0.0603549535
H  H21  1  0.03720000  0.36980000  0.92780000  0.25 0.0603549535
H  H22  1  0.93130000  0.38420000  0.93430000  0.25 0.0603549535
H  H23  1  0.94720000  0.37560000  0.05120000  0.25 0.0680647753
H  H24  1  0.05410000  0.37690000  0.04460000  0.25 0.0603549535
H  H25  1  0.90180000  0.59520000  0.92870000  0.25 0.0603549535
H  H26  1  0.00040000  0.63550000  0.93780000  0.25 0.0603549535
H  H27  1  0.97590000  0.63280000  0.05210000  0.25 0.0603549535
H  H28  1  0.88770000  0.57320000  0.04280000  0.25 0.0680647753
H  H29  1  0.86710000  0.53450000  0.92530000  0.25 0.0603549535
H  H30  1  0.93250000  0.61880000  0.93290000  0.25 0.0603549535
H  H31  1  0.86210000  0.51580000  0.03950000  0.25 0.0603549535
H  H32  1  0.91300000  0.60960000  0.04690000  0.25 0.0603549535
H  H33  1  0.86980000  0.46280000  0.92780000  0.25 0.0603549535
H  H34  1  0.88420000  0.56870000  0.93430000  0.25 0.0603549535
H  H35  1  0.87560000  0.55280000  0.05120000  0.25 0.0680647753
H  H36  1  0.87690000  0.44590000  0.04460000  0.25 0.0603549535
H  H37  1  0.09820000  0.40480000  0.92870000  0.25 0.0603549535
H  H38  1  0.99960000  0.36450000  0.93780000  0.25 0.0603549535
H  H39  1  0.02410000  0.36720000  0.05210000  0.25 0.0603549535
H  H40  1  0.11230000  0.42680000  0.04280000  0.25 0.0680647753
H  H41  1  0.13290000  0.46550000  0.92530000  0.25 0.0603549535
H  H42  1  0.06750000  0.38120000  0.93290000  0.25 0.0603549535
H  H43  1  0.13790000  0.48420000  0.03950000  0.25 0.0603549535
H  H44  1  0.08700000  0.39040000  0.04690000  0.25 0.0603549535
H  H45  1  0.13020000  0.53720000  0.92780000  0.25 0.0603549535
H  H46  1  0.11580000  0.43130000  0.93430000  0.25 0.0603549535
H  H47  1  0.12440000  0.44720000  0.05120000  0.25 0.0680647753
H  H48  1  0.12310000  0.55410000  0.04460000  0.25 0.0603549535
H  H49  1  0.40480000  0.09820000  0.57130000  0.25 0.0603549535
H  H50  1  0.36450000  0.99960000  0.56220000  0.25 0.0603549535
H  H51  1  0.36720000  0.02410000  0.44790000  0.25 0.0603549535
H  H52  1  0.42680000  0.11230000  0.45720000  0.25 0.0680647753
H  H53  1  0.46550000  0.13290000  0.57470000  0.25 0.0603549535
H  H54  1  0.38120000  0.06750000  0.56710000  0.25 0.0603549535
H  H55  1  0.48420000  0.13790000  0.46050000  0.25 0.0603549535
H  H56  1  0.39040000  0.08700000  0.45310000  0.25 0.0603549535
H  H57  1  0.53720000  0.13020000  0.57220000  0.25 0.0603549535
H  H58  1  0.43130000  0.11580000  0.56570000  0.25 0.0603549535
H  H59  1  0.44720000  0.12440000  0.44880000  0.25 0.0680647753
H  H60  1  0.55410000  0.12310000  0.45540000  0.25 0.0603549535
H  H61  1  0.59520000  0.90180000  0.57130000  0.25 0.0603549535
H  H62  1  0.63550000  0.00040000  0.56220000  0.25 0.0603549535
H  H63  1  0.63280000  0.97590000  0.44790000  0.25 0.0603549535
H  H64  1  0.57320000  0.88770000  0.45720000  0.25 0.0680647753
H  H65  1  0.53450000  0.86710000  0.57470000  0.25 0.0603549535
H  H66  1  0.61880000  0.93250000  0.56710000  0.25 0.0603549535
H  H67  1  0.51580000  0.86210000  0.46050000  0.25 0.0603549535
H  H68  1  0.60960000  0.91300000  0.45310000  0.25 0.0603549535
H  H69  1  0.46280000  0.86980000  0.57220000  0.25 0.0603549535
H  H70  1  0.56870000  0.88420000  0.56570000  0.25 0.0603549535
H  H71  1  0.55280000  0.87560000  0.44880000  0.25 0.0680647753
H  H72  1  0.44590000  0.87690000  0.45540000  0.25 0.0603549535
H  H73  1  0.59820000  0.09520000  0.57130000  0.25 0.0603549535
H  H74  1  0.49960000  0.13550000  0.56220000  0.25 0.0603549535
H  H75  1  0.52410000  0.13280000  0.44790000  0.25 0.0603549535
H  H76  1  0.61230000  0.07320000  0.45720000  0.25 0.0680647753
H  H77  1  0.63290000  0.03450000  0.57470000  0.25 0.0603549535
H  H78  1  0.56750000  0.11880000  0.56710000  0.25 0.0603549535
H  H79  1  0.63790000  0.01580000  0.46050000  0.25 0.0603549535
H  H80  1  0.58700000  0.10960000  0.45310000  0.25 0.0603549535
H  H81  1  0.63020000  0.96280000  0.57220000  0.25 0.0603549535
H  H82  1  0.61580000  0.06870000  0.56570000  0.25 0.0603549535
H  H83  1  0.62440000  0.05280000  0.44880000  0.25 0.0680647753
H  H84  1  0.62310000  0.94590000  0.45540000  0.25 0.0603549535
H  H85  1  0.40180000  0.90480000  0.57130000  0.25 0.0603549535
H  H86  1  0.50040000  0.86450000  0.56220000  0.25 0.0603549535
H  H87  1  0.47590000  0.86720000  0.44790000  0.25 0.0603549535
H  H88  1  0.38770000  0.92680000  0.45720000  0.25 0.0680647753
H  H89  1  0.36710000  0.96550000  0.57470000  0.25 0.0603549535
H  H90  1  0.43250000  0.88120000  0.56710000  0.25 0.0603549535
H  H91  1  0.36210000  0.98420000  0.46050000  0.25 0.0603549535
H  H92  1  0.41300000  0.89040000  0.45310000  0.25 0.0603549535
H  H93  1  0.36980000  0.03720000  0.57220000  0.25 0.0603549535
H  H94  1  0.38420000  0.93130000  0.56570000  0.25 0.0603549535
H  H95  1  0.37560000  0.94720000  0.44880000  0.25 0.0680647753
H  H96  1  0.37690000  0.05410000  0.45540000  0.25 0.0603549535
H  H97  1  0.40480000  0.90180000  0.07130000  0.25 0.0603549535
H  H98  1  0.36450000  0.00040000  0.06220000  0.25 0.0603549535
H  H99  1  0.36720000  0.97590000  0.94790000  0.25 0.0603549535
H  H100  1  0.42680000  0.88770000  0.95720000  0.25 0.0680647753
H  H101  1  0.46550000  0.86710000  0.07470000  0.25 0.0603549535
H  H102  1  0.38120000  0.93250000  0.06710000  0.25 0.0603549535
H  H103  1  0.48420000  0.86210000  0.96050000  0.25 0.0603549535
H  H104  1  0.39040000  0.91300000  0.95310000  0.25 0.0603549535
H  H105  1  0.53720000  0.86980000  0.07220000  0.25 0.0603549535
H  H106  1  0.43130000  0.88420000  0.06570000  0.25 0.0603549535
H  H107  1  0.44720000  0.87560000  0.94880000  0.25 0.0680647753
H  H108  1  0.55410000  0.87690000  0.95540000  0.25 0.0603549535
H  H109  1  0.59520000  0.09820000  0.07130000  0.25 0.0603549535
H  H110  1  0.63550000  0.99960000  0.06220000  0.25 0.0603549535
H  H111  1  0.63280000  0.02410000  0.94790000  0.25 0.0603549535
H  H112  1  0.57320000  0.11230000  0.95720000  0.25 0.0680647753
H  H113  1  0.53450000  0.13290000  0.07470000  0.25 0.0603549535
H  H114  1  0.61880000  0.06750000  0.06710000  0.25 0.0603549535
H  H115  1  0.51580000  0.13790000  0.96050000  0.25 0.0603549535
H  H116  1  0.60960000  0.08700000  0.95310000  0.25 0.0603549535
H  H117  1  0.46280000  0.13020000  0.07220000  0.25 0.0603549535
H  H118  1  0.56870000  0.11580000  0.06570000  0.25 0.0603549535
H  H119  1  0.55280000  0.12440000  0.94880000  0.25 0.0680647753
H  H120  1  0.44590000  0.12310000  0.95540000  0.25 0.0603549535
H  H121  1  0.59820000  0.90480000  0.07130000  0.25 0.0603549535
H  H122  1  0.49960000  0.86450000  0.06220000  0.25 0.0603549535
H  H123  1  0.52410000  0.86720000  0.94790000  0.25 0.0603549535
H  H124  1  0.61230000  0.92680000  0.95720000  0.25 0.0680647753
H  H125  1  0.63290000  0.96550000  0.07470000  0.25 0.0603549535
H  H126  1  0.56750000  0.88120000  0.06710000  0.25 0.0603549535
H  H127  1  0.63790000  0.98420000  0.96050000  0.25 0.0603549535
H  H128  1  0.58700000  0.89040000  0.95310000  0.25 0.0603549535
H  H129  1  0.63020000  0.03720000  0.07220000  0.25 0.0603549535
H  H130  1  0.61580000  0.93130000  0.06570000  0.25 0.0603549535
H  H131  1  0.62440000  0.94720000  0.94880000  0.25 0.0680647753
H  H132  1  0.62310000  0.05410000  0.95540000  0.25 0.0603549535
H  H133  1  0.40180000  0.09520000  0.07130000  0.25 0.0603549535
H  H134  1  0.50040000  0.13550000  0.06220000  0.25 0.0603549535
H  H135  1  0.47590000  0.13280000  0.94790000  0.25 0.0603549535
H  H136  1  0.38770000  0.07320000  0.95720000  0.25 0.0680647753
H  H137  1  0.36710000  0.03450000  0.07470000  0.25 0.0603549535
H  H138  1  0.43250000  0.11880000  0.06710000  0.25 0.0603549535
H  H139  1  0.36210000  0.01580000  0.96050000  0.25 0.0603549535
H  H140  1  0.41300000  0.10960000  0.95310000  0.25 0.0603549535
H  H141  1  0.36980000  0.96280000  0.07220000  0.25 0.0603549535
H  H142  1  0.38420000  0.06870000  0.06570000  0.25 0.0603549535
H  H143  1  0.37560000  0.05280000  0.94880000  0.25 0.0680647753
H  H144  1  0.37690000  0.94590000  0.95540000  0.25 0.0603549535
H  H145  1  0.09520000  0.40180000  0.42870000  0.25 0.0603549535
H  H146  1  0.13550000  0.50040000  0.43780000  0.25 0.0603549535
H  H147  1  0.13280000  0.47590000  0.55210000  0.25 0.0603549535
H  H148  1  0.07320000  0.38770000  0.54280000  0.25 0.0680647753
H  H149  1  0.03450000  0.36710000  0.42530000  0.25 0.0603549535
H  H150  1  0.11880000  0.43250000  0.43290000  0.25 0.0603549535
H  H151  1  0.01580000  0.36210000  0.53950000  0.25 0.0603549535
H  H152  1  0.10960000  0.41300000  0.54690000  0.25 0.0603549535
H  H153  1  0.96280000  0.36980000  0.42780000  0.25 0.0603549535
H  H154  1  0.06870000  0.38420000  0.43430000  0.25 0.0603549535
H  H155  1  0.05280000  0.37560000  0.55120000  0.25 0.0680647753
H  H156  1  0.94590000  0.37690000  0.54460000  0.25 0.0603549535
H  H157  1  0.90480000  0.59820000  0.42870000  0.25 0.0603549535
H  H158  1  0.86450000  0.49960000  0.43780000  0.25 0.0603549535
H  H159  1  0.86720000  0.52410000  0.55210000  0.25 0.0603549535
H  H160  1  0.92680000  0.61230000  0.54280000  0.25 0.0680647753
H  H161  1  0.96550000  0.63290000  0.42530000  0.25 0.0603549535
H  H162  1  0.88120000  0.56750000  0.43290000  0.25 0.0603549535
H  H163  1  0.98420000  0.63790000  0.53950000  0.25 0.0603549535
H  H164  1  0.89040000  0.58700000  0.54690000  0.25 0.0603549535
H  H165  1  0.03720000  0.63020000  0.42780000  0.25 0.0603549535
H  H166  1  0.93130000  0.61580000  0.43430000  0.25 0.0603549535
H  H167  1  0.94720000  0.62440000  0.55120000  0.25 0.0680647753
H  H168  1  0.05410000  0.62310000  0.54460000  0.25 0.0603549535
H  H169  1  0.90180000  0.40480000  0.42870000  0.25 0.0603549535
H  H170  1  0.00040000  0.36450000  0.43780000  0.25 0.0603549535
H  H171  1  0.97590000  0.36720000  0.55210000  0.25 0.0603549535
H  H172  1  0.88770000  0.42680000  0.54280000  0.25 0.0680647753
H  H173  1  0.86710000  0.46550000  0.42530000  0.25 0.0603549535
H  H174  1  0.93250000  0.38120000  0.43290000  0.25 0.0603549535
H  H175  1  0.86210000  0.48420000  0.53950000  0.25 0.0603549535
H  H176  1  0.91300000  0.39040000  0.54690000  0.25 0.0603549535
H  H177  1  0.86980000  0.53720000  0.42780000  0.25 0.0603549535
H  H178  1  0.88420000  0.43130000  0.43430000  0.25 0.0603549535
H  H179  1  0.87560000  0.44720000  0.55120000  0.25 0.0680647753
H  H180  1  0.87690000  0.55410000  0.54460000  0.25 0.0603549535
H  H181  1  0.09820000  0.59520000  0.42870000  0.25 0.0603549535
H  H182  1  0.99960000  0.63550000  0.43780000  0.25 0.0603549535
H  H183  1  0.02410000  0.63280000  0.55210000  0.25 0.0603549535
H  H184  1  0.11230000  0.57320000  0.54280000  0.25 0.0680647753
H  H185  1  0.13290000  0.53450000  0.42530000  0.25 0.0603549535
H  H186  1  0.06750000  0.61880000  0.43290000  0.25 0.0603549535
H  H187  1  0.13790000  0.51580000  0.53950000  0.25 0.0603549535
H  H188  1  0.08700000  0.60960000  0.54690000  0.25 0.0603549535
H  H189  1  0.13020000  0.46280000  0.42780000  0.25 0.0603549535
H  H190  1  0.11580000  0.56870000  0.43430000  0.25 0.0603549535
H  H191  1  0.12440000  0.55280000  0.55120000  0.25 0.0680647753
H  H192  1  0.12310000  0.44590000  0.54460000  0.25 0.0603549535
H  H193  1  0.75930000  0.36210000  0.85050000  0.5 0.2486658469
H  H194  1  0.74800000  0.34800000  0.64130000  0.5 0.2399494983
H  H195  1  0.24070000  0.63790000  0.85050000  0.5 0.2486658469
H  H196  1  0.25200000  0.65200000  0.64130000  0.5 0.2399494983
H  H197  1  0.13790000  0.25930000  0.85050000  0.5 0.2486658469
H  H198  1  0.15200000  0.24800000  0.64130000  0.5 0.2399494983
H  H199  1  0.86210000  0.74070000  0.85050000  0.5 0.2486658469
H  H200  1  0.84800000  0.75200000  0.64130000  0.5 0.2399494983
H  H201  1  0.74070000  0.86210000  0.64950000  0.5 0.2486658469
H  H202  1  0.75200000  0.84800000  0.85870000  0.5 0.2399494983
H  H203  1  0.25930000  0.13790000  0.64950000  0.5 0.2486658469
H  H204  1  0.24800000  0.15200000  0.85870000  0.5 0.2399494983
H  H205  1  0.36210000  0.75930000  0.64950000  0.5 0.2486658469
H  H206  1  0.34800000  0.74800000  0.85870000  0.5 0.2399494983
H  H207  1  0.63790000  0.24070000  0.64950000  0.5 0.2486658469
H  H208  1  0.65200000  0.25200000  0.85870000  0.5 0.2399494983
H  H209  1  0.74070000  0.13790000  0.14950000  0.5 0.2486658469
H  H210  1  0.75200000  0.15200000  0.35870000  0.5 0.2399494983
H  H211  1  0.25930000  0.86210000  0.14950000  0.5 0.2486658469
H  H212  1  0.24800000  0.84800000  0.35870000  0.5 0.2399494983
H  H213  1  0.36210000  0.24070000  0.14950000  0.5 0.2486658469
H  H214  1  0.34800000  0.25200000  0.35870000  0.5 0.2399494983
H  H215  1  0.63790000  0.75930000  0.14950000  0.5 0.2486658469
H  H216  1  0.65200000  0.74800000  0.35870000  0.5 0.2399494983
H  H217  1  0.75930000  0.63790000  0.35050000  0.5 0.2486658469
H  H218  1  0.74800000  0.65200000  0.14130000  0.5 0.2399494983
H  H219  1  0.24070000  0.36210000  0.35050000  0.5 0.2486658469
H  H220  1  0.25200000  0.34800000  0.14130000  0.5 0.2399494983
H  H221  1  0.13790000  0.74070000  0.35050000  0.5 0.2486658469
H  H222  1  0.15200000  0.75200000  0.14130000  0.5 0.2399494983
H  H223  1  0.86210000  0.25930000  0.35050000  0.5 0.2486658469
H  H224  1  0.84800000  0.24800000  0.14130000  0.5 0.2399494983
C  C1  1  0.84775000  0.42599000  0.74001000  1.0 0.3819612674
C  C2  1  0.76843000  0.36463000  0.74510000  1.0 -0.1022177795
C  C3  1  0.73635000  0.33605000  0.80905000  1.0 0.0184099404
C  C4  1  0.72930000  0.32812000  0.68611000  1.0 -0.0061052017
C  C5  1  0.15225000  0.57401000  0.74001000  1.0 0.3819612674
C  C6  1  0.23157000  0.63537000  0.74510000  1.0 -0.1022177795
C  C7  1  0.26365000  0.66395000  0.80905000  1.0 0.0184099404
C  C8  1  0.27070000  0.67188000  0.68611000  1.0 -0.0061052017
C  C9  1  0.07401000  0.34775000  0.74001000  1.0 0.3819612674
C  C10  1  0.13537000  0.26843000  0.74510000  1.0 -0.1022177795
C  C11  1  0.16395000  0.23635000  0.80905000  1.0 0.0184099404
C  C12  1  0.17188000  0.22930000  0.68611000  1.0 -0.0061052017
C  C13  1  0.92599000  0.65225000  0.74001000  1.0 0.3819612674
C  C14  1  0.86463000  0.73157000  0.74510000  1.0 -0.1022177795
C  C15  1  0.83605000  0.76365000  0.80905000  1.0 0.0184099404
C  C16  1  0.82812000  0.77070000  0.68611000  1.0 -0.0061052017
C  C17  1  0.65225000  0.92599000  0.75999000  1.0 0.3819612674
C  C18  1  0.73157000  0.86463000  0.75490000  1.0 -0.1022177795
C  C19  1  0.76365000  0.83605000  0.69095000  1.0 0.0184099404
C  C20  1  0.77070000  0.82812000  0.81389000  1.0 -0.0061052017
C  C21  1  0.34775000  0.07401000  0.75999000  1.0 0.3819612674
C  C22  1  0.26843000  0.13537000  0.75490000  1.0 -0.1022177795
C  C23  1  0.23635000  0.16395000  0.69095000  1.0 0.0184099404
C  C24  1  0.22930000  0.17188000  0.81389000  1.0 -0.0061052017
C  C25  1  0.42599000  0.84775000  0.75999000  1.0 0.3819612674
C  C26  1  0.36463000  0.76843000  0.75490000  1.0 -0.1022177795
C  C27  1  0.33605000  0.73635000  0.69095000  1.0 0.0184099404
C  C28  1  0.32812000  0.72930000  0.81389000  1.0 -0.0061052017
C  C29  1  0.57401000  0.15225000  0.75999000  1.0 0.3819612674
C  C30  1  0.63537000  0.23157000  0.75490000  1.0 -0.1022177795
C  C31  1  0.66395000  0.26365000  0.69095000  1.0 0.0184099404
C  C32  1  0.67188000  0.27070000  0.81389000  1.0 -0.0061052017
C  C33  1  0.65225000  0.07401000  0.25999000  1.0 0.3819612674
C  C34  1  0.73157000  0.13537000  0.25490000  1.0 -0.1022177795
C  C35  1  0.76365000  0.16395000  0.19095000  1.0 0.0184099404
C  C36  1  0.77070000  0.17188000  0.31389000  1.0 -0.0061052017
C  C37  1  0.34775000  0.92599000  0.25999000  1.0 0.3819612674
C  C38  1  0.26843000  0.86463000  0.25490000  1.0 -0.1022177795
C  C39  1  0.23635000  0.83605000  0.19095000  1.0 0.0184099404
C  C40  1  0.22930000  0.82812000  0.31389000  1.0 -0.0061052017
C  C41  1  0.42599000  0.15225000  0.25999000  1.0 0.3819612674
C  C42  1  0.36463000  0.23157000  0.25490000  1.0 -0.1022177795
C  C43  1  0.33605000  0.26365000  0.19095000  1.0 0.0184099404
C  C44  1  0.32812000  0.27070000  0.31389000  1.0 -0.0061052017
C  C45  1  0.57401000  0.84775000  0.25999000  1.0 0.3819612674
C  C46  1  0.63537000  0.76843000  0.25490000  1.0 -0.1022177795
C  C47  1  0.66395000  0.73635000  0.19095000  1.0 0.0184099404
C  C48  1  0.67188000  0.72930000  0.31389000  1.0 -0.0061052017
C  C49  1  0.84775000  0.57401000  0.24001000  1.0 0.3819612674
C  C50  1  0.76843000  0.63537000  0.24510000  1.0 -0.1022177795
C  C51  1  0.73635000  0.66395000  0.30905000  1.0 0.0184099404
C  C52  1  0.72930000  0.67188000  0.18611000  1.0 -0.0061052017
C  C53  1  0.15225000  0.42599000  0.24001000  1.0 0.3819612674
C  C54  1  0.23157000  0.36463000  0.24510000  1.0 -0.1022177795
C  C55  1  0.26365000  0.33605000  0.30905000  1.0 0.0184099404
C  C56  1  0.27070000  0.32812000  0.18611000  1.0 -0.0061052017
C  C57  1  0.07401000  0.65225000  0.24001000  1.0 0.3819612674
C  C58  1  0.13537000  0.73157000  0.24510000  1.0 -0.1022177795
C  C59  1  0.16395000  0.76365000  0.30905000  1.0 0.0184099404
C  C60  1  0.17188000  0.77070000  0.18611000  1.0 -0.0061052017
C  C61  1  0.92599000  0.34775000  0.24001000  1.0 0.3819612674
C  C62  1  0.86463000  0.26843000  0.24510000  1.0 -0.1022177795
C  C63  1  0.83605000  0.23635000  0.30905000  1.0 0.0184099404
C  C64  1  0.82812000  0.22930000  0.18611000  1.0 -0.0061052017
C  C65  1  0.08450000  0.53900000  0.94990000  0.25 -0.0695950496
C  C66  1  0.07810000  0.54800000  0.03010000  0.25 -0.0695950496
C  C67  1  0.05600000  0.57660000  0.94670000  0.25 -0.0873071042
C  C68  1  0.04900000  0.58310000  0.02650000  0.25 -0.0783587201
C  C69  1  0.01000000  0.59160000  0.94820000  0.25 -0.0695950496
C  C70  1  0.00100000  0.59200000  0.03060000  0.25 -0.0783587201
C  C71  1  0.91550000  0.46100000  0.94990000  0.25 -0.0695950496
C  C72  1  0.92190000  0.45200000  0.03010000  0.25 -0.0695950496
C  C73  1  0.94400000  0.42340000  0.94670000  0.25 -0.0783587201
C  C74  1  0.95100000  0.41690000  0.02650000  0.25 -0.0783587201
C  C75  1  0.99000000  0.40840000  0.94820000  0.25 -0.0695950496
C  C76  1  0.99900000  0.40800000  0.03060000  0.25 -0.0783587201
C  C77  1  0.96100000  0.58450000  0.94990000  0.25 -0.0695950496
C  C78  1  0.95200000  0.57810000  0.03010000  0.25 -0.0695950496
C  C79  1  0.92340000  0.55600000  0.94670000  0.25 -0.0783587201
C  C80  1  0.91690000  0.54900000  0.02650000  0.25 -0.0783587201
C  C81  1  0.90840000  0.51000000  0.94820000  0.25 -0.0695950496
C  C82  1  0.90800000  0.50100000  0.03060000  0.25 -0.0783587201
C  C83  1  0.03900000  0.41550000  0.94990000  0.25 -0.0695950496
C  C84  1  0.04800000  0.42190000  0.03010000  0.25 -0.0695950496
C  C85  1  0.07660000  0.44400000  0.94670000  0.25 -0.0873071042
C  C86  1  0.08310000  0.45100000  0.02650000  0.25 -0.0783587201
C  C87  1  0.09160000  0.49000000  0.94820000  0.25 -0.0695950496
C  C88  1  0.09200000  0.49900000  0.03060000  0.25 -0.0783587201
C  C89  1  0.41550000  0.03900000  0.55010000  0.25 -0.0695950496
C  C90  1  0.42190000  0.04800000  0.46990000  0.25 -0.0695950496
C  C91  1  0.44400000  0.07660000  0.55330000  0.25 -0.0783587201
C  C92  1  0.45100000  0.08310000  0.47350000  0.25 -0.0783587201
C  C93  1  0.49000000  0.09160000  0.55180000  0.25 -0.0695950496
C  C94  1  0.49900000  0.09200000  0.46940000  0.25 -0.0783587201
C  C95  1  0.58450000  0.96100000  0.55010000  0.25 -0.0695950496
C  C96  1  0.57810000  0.95200000  0.46990000  0.25 -0.0695950496
C  C97  1  0.55600000  0.92340000  0.55330000  0.25 -0.0873071042
C  C98  1  0.54900000  0.91690000  0.47350000  0.25 -0.0783587201
C  C99  1  0.51000000  0.90840000  0.55180000  0.25 -0.0695950496
C  C100  1  0.50100000  0.90800000  0.46940000  0.25 -0.0783587201
C  C101  1  0.53900000  0.08450000  0.55010000  0.25 -0.0695950496
C  C102  1  0.54800000  0.07810000  0.46990000  0.25 -0.0695950496
C  C103  1  0.57660000  0.05600000  0.55330000  0.25 -0.0783587201
C  C104  1  0.58310000  0.04900000  0.47350000  0.25 -0.0783587201
C  C105  1  0.59160000  0.01000000  0.55180000  0.25 -0.0695950496
C  C106  1  0.59200000  0.00100000  0.46940000  0.25 -0.0783587201
C  C107  1  0.46100000  0.91550000  0.55010000  0.25 -0.0695950496
C  C108  1  0.45200000  0.92190000  0.46990000  0.25 -0.0695950496
C  C109  1  0.42340000  0.94400000  0.55330000  0.25 -0.0873071042
C  C110  1  0.41690000  0.95100000  0.47350000  0.25 -0.0783587201
C  C111  1  0.40840000  0.99000000  0.55180000  0.25 -0.0695950496
C  C112  1  0.40800000  0.99900000  0.46940000  0.25 -0.0783587201
C  C113  1  0.41550000  0.96100000  0.05010000  0.25 -0.0695950496
C  C114  1  0.42190000  0.95200000  0.96990000  0.25 -0.0695950496
C  C115  1  0.44400000  0.92340000  0.05330000  0.25 -0.0873071042
C  C116  1  0.45100000  0.91690000  0.97350000  0.25 -0.0783587201
C  C117  1  0.49000000  0.90840000  0.05180000  0.25 -0.0695950496
C  C118  1  0.49900000  0.90800000  0.96940000  0.25 -0.0783587201
C  C119  1  0.58450000  0.03900000  0.05010000  0.25 -0.0695950496
C  C120  1  0.57810000  0.04800000  0.96990000  0.25 -0.0695950496
C  C121  1  0.55600000  0.07660000  0.05330000  0.25 -0.0783587201
C  C122  1  0.54900000  0.08310000  0.97350000  0.25 -0.0783587201
C  C123  1  0.51000000  0.09160000  0.05180000  0.25 -0.0695950496
C  C124  1  0.50100000  0.09200000  0.96940000  0.25 -0.0783587201
C  C125  1  0.53900000  0.91550000  0.05010000  0.25 -0.0695950496
C  C126  1  0.54800000  0.92190000  0.96990000  0.25 -0.0695950496
C  C127  1  0.57660000  0.94400000  0.05330000  0.25 -0.0873071042
C  C128  1  0.58310000  0.95100000  0.97350000  0.25 -0.0783587201
C  C129  1  0.59160000  0.99000000  0.05180000  0.25 -0.0695950496
C  C130  1  0.59200000  0.99900000  0.96940000  0.25 -0.0783587201
C  C131  1  0.46100000  0.08450000  0.05010000  0.25 -0.0695950496
C  C132  1  0.45200000  0.07810000  0.96990000  0.25 -0.0695950496
C  C133  1  0.42340000  0.05600000  0.05330000  0.25 -0.0783587201
C  C134  1  0.41690000  0.04900000  0.97350000  0.25 -0.0783587201
C  C135  1  0.40840000  0.01000000  0.05180000  0.25 -0.0695950496
C  C136  1  0.40800000  0.00100000  0.96940000  0.25 -0.0783587201
C  C137  1  0.08450000  0.46100000  0.44990000  0.25 -0.0695950496
C  C138  1  0.07810000  0.45200000  0.53010000  0.25 -0.0695950496
C  C139  1  0.05600000  0.42340000  0.44670000  0.25 -0.0873071042
C  C140  1  0.04900000  0.41690000  0.52650000  0.25 -0.0783587201
C  C141  1  0.01000000  0.40840000  0.44820000  0.25 -0.0695950496
C  C142  1  0.00100000  0.40800000  0.53060000  0.25 -0.0783587201
C  C143  1  0.91550000  0.53900000  0.44990000  0.25 -0.0695950496
C  C144  1  0.92190000  0.54800000  0.53010000  0.25 -0.0695950496
C  C145  1  0.94400000  0.57660000  0.44670000  0.25 -0.0783587201
C  C146  1  0.95100000  0.58310000  0.52650000  0.25 -0.0783587201
C  C147  1  0.99000000  0.59160000  0.44820000  0.25 -0.0695950496
C  C148  1  0.99900000  0.59200000  0.53060000  0.25 -0.0783587201
C  C149  1  0.96100000  0.41550000  0.44990000  0.25 -0.0695950496
C  C150  1  0.95200000  0.42190000  0.53010000  0.25 -0.0695950496
C  C151  1  0.92340000  0.44400000  0.44670000  0.25 -0.0783587201
C  C152  1  0.91690000  0.45100000  0.52650000  0.25 -0.0783587201
C  C153  1  0.90840000  0.49000000  0.44820000  0.25 -0.0695950496
C  C154  1  0.90800000  0.49900000  0.53060000  0.25 -0.0783587201
C  C155  1  0.03900000  0.58450000  0.44990000  0.25 -0.0695950496
C  C156  1  0.04800000  0.57810000  0.53010000  0.25 -0.0695950496
C  C157  1  0.07660000  0.55600000  0.44670000  0.25 -0.0873071042
C  C158  1  0.08310000  0.54900000  0.52650000  0.25 -0.0783587201
C  C159  1  0.09160000  0.51000000  0.44820000  0.25 -0.0695950496
C  C160  1  0.09200000  0.50100000  0.53060000  0.25 -0.0783587201
N  N1  1  0.00000000  0.50000000  0.92144000  1.0 -0.0783587201
N  N2  1  0.00000000  0.50000000  0.05610000  1.0 -0.0873071042
N  N3  1  0.50000000  0.00000000  0.57856000  1.0 -0.0783587201
N  N4  1  0.50000000  0.00000000  0.44390000  1.0 -0.0873071042
N  N5  1  0.50000000  0.00000000  0.07856000  1.0 -0.0783587201
N  N6  1  0.50000000  0.00000000  0.94390000  1.0 -0.0873071042
N  N7  1  0.00000000  0.50000000  0.42144000  1.0 -0.0783587201
N  N8  1  0.00000000  0.50000000  0.55610000  1.0 -0.0873071042
O  O1  1  0.87025000  0.46769000  0.79410000  1.0 -0.4673863687
O  O2  1  0.88710000  0.42803000  0.68200000  1.0 -0.4568143375
O  O3  1  0.12975000  0.53231000  0.79410000  1.0 -0.4673863687
O  O4  1  0.11290000  0.57197000  0.68200000  1.0 -0.4568143375
O  O5  1  0.03231000  0.37025000  0.79410000  1.0 -0.4673863687
O  O6  1  0.07197000  0.38710000  0.68200000  1.0 -0.4568143375
O  O7  1  0.96769000  0.62975000  0.79410000  1.0 -0.4673863687
O  O8  1  0.92803000  0.61290000  0.68200000  1.0 -0.4568143375
O  O9  1  0.62975000  0.96769000  0.70590000  1.0 -0.4673863687
O  O10  1  0.61290000  0.92803000  0.81800000  1.0 -0.4568143375
O  O11  1  0.37025000  0.03231000  0.70590000  1.0 -0.4673863687
O  O12  1  0.38710000  0.07197000  0.81800000  1.0 -0.4568143375
O  O13  1  0.46769000  0.87025000  0.70590000  1.0 -0.4673863687
O  O14  1  0.42803000  0.88710000  0.81800000  1.0 -0.4568143375
O  O15  1  0.53231000  0.12975000  0.70590000  1.0 -0.4673863687
O  O16  1  0.57197000  0.11290000  0.81800000  1.0 -0.4568143375
O  O17  1  0.62975000  0.03231000  0.20590000  1.0 -0.4673863687
O  O18  1  0.61290000  0.07197000  0.31800000  1.0 -0.4568143375
O  O19  1  0.37025000  0.96769000  0.20590000  1.0 -0.4673863687
O  O20  1  0.38710000  0.92803000  0.31800000  1.0 -0.4568143375
O  O21  1  0.46769000  0.12975000  0.20590000  1.0 -0.4673863687
O  O22  1  0.42803000  0.11290000  0.31800000  1.0 -0.4568143375
O  O23  1  0.53231000  0.87025000  0.20590000  1.0 -0.4673863687
O  O24  1  0.57197000  0.88710000  0.31800000  1.0 -0.4568143375
O  O25  1  0.87025000  0.53231000  0.29410000  1.0 -0.4673863687
O  O26  1  0.88710000  0.57197000  0.18200000  1.0 -0.4568143375
O  O27  1  0.12975000  0.46769000  0.29410000  1.0 -0.4673863687
O  O28  1  0.11290000  0.42803000  0.18200000  1.0 -0.4568143375
O  O29  1  0.03231000  0.62975000  0.29410000  1.0 -0.4673863687
O  O30  1  0.07197000  0.61290000  0.18200000  1.0 -0.4568143375
O  O31  1  0.96769000  0.37025000  0.29410000  1.0 -0.4673863687
O  O32  1  0.92803000  0.38710000  0.18200000  1.0 -0.4568143375
F  F1  1  0.76138000  0.37258000  0.87203000  0.5 -0.2191223606
F  F2  1  0.74786000  0.36175000  0.61933000  0.5 -0.2117911801
F  F3  1  0.23862000  0.62742000  0.87203000  0.5 -0.2191223606
F  F4  1  0.25214000  0.63825000  0.61933000  0.5 -0.2117911801
F  F5  1  0.12742000  0.26138000  0.87203000  0.5 -0.2191223606
F  F6  1  0.13825000  0.24786000  0.61933000  0.5 -0.2117911801
F  F7  1  0.87258000  0.73862000  0.87203000  0.5 -0.2191223606
F  F8  1  0.86175000  0.75214000  0.61933000  0.5 -0.2191223606
F  F9  1  0.73862000  0.87258000  0.62797000  0.5 -0.2191223606
F  F10  1  0.75214000  0.86175000  0.88067000  0.5 -0.2191223606
F  F11  1  0.26138000  0.12742000  0.62797000  0.5 -0.2191223606
F  F12  1  0.24786000  0.13825000  0.88067000  0.5 -0.2117911801
F  F13  1  0.37258000  0.76138000  0.62797000  0.5 -0.2191223606
F  F14  1  0.36175000  0.74786000  0.88067000  0.5 -0.2117911801
F  F15  1  0.62742000  0.23862000  0.62797000  0.5 -0.2191223606
F  F16  1  0.63825000  0.25214000  0.88067000  0.5 -0.2117911801
F  F17  1  0.73862000  0.12742000  0.12797000  0.5 -0.2191223606
F  F18  1  0.75214000  0.13825000  0.38067000  0.5 -0.2117911801
F  F19  1  0.26138000  0.87258000  0.12797000  0.5 -0.2191223606
F  F20  1  0.24786000  0.86175000  0.38067000  0.5 -0.2191223606
F  F21  1  0.37258000  0.23862000  0.12797000  0.5 -0.2191223606
F  F22  1  0.36175000  0.25214000  0.38067000  0.5 -0.2117911801
F  F23  1  0.62742000  0.76138000  0.12797000  0.5 -0.2191223606
F  F24  1  0.63825000  0.74786000  0.38067000  0.5 -0.2117911801
F  F25  1  0.76138000  0.62742000  0.37203000  0.5 -0.2191223606
F  F26  1  0.74786000  0.63825000  0.11933000  0.5 -0.2117911801
F  F27  1  0.23862000  0.37258000  0.37203000  0.5 -0.2191223606
F  F28  1  0.25214000  0.36175000  0.11933000  0.5 -0.2117911801
F  F29  1  0.12742000  0.73862000  0.37203000  0.5 -0.2191223606
F  F30  1  0.13825000  0.75214000  0.11933000  0.5 -0.2117911801
F  F31  1  0.87258000  0.26138000  0.37203000  0.5 -0.2191223606
F  F32  1  0.86175000  0.24786000  0.11933000  0.5 -0.2191223606
