# DDEC6 charges by PACMAN v1.1 (https://github.com/mtap-research/PACMAN-charge/)
data_ja6b06375_si_001_FSR_pacman
_symmetry_space_group_name_H-M   'P 1'
_cell_length_a   27.37300000
_cell_length_b   27.37300000
_cell_length_c   18.58270000
_cell_angle_alpha   90.00000000
_cell_angle_beta   90.00000000
_cell_angle_gamma   90.00000000
_symmetry_Int_Tables_number   1
_chemical_formula_structural   ZnH6(C3N2)2
_chemical_formula_sum   'Zn32 H192 C192 N128'
_cell_volume   13923.66643587
_cell_formula_units_Z   32
loop_
 _symmetry_equiv_pos_site_id
 _symmetry_equiv_pos_as_xyz
  1  'x, y, z'
loop_
 _atom_site_type_symbol
 _atom_site_label
 _atom_site_symmetry_multiplicity
 _atom_site_fract_x
 _atom_site_fract_y
 _atom_site_fract_z
 _atom_site_occupancy
 _atom_site_charge
Zn  Zn1  1  0.26412000  0.10989000  0.42238000  1.0 0.4819065425
Zn  Zn2  1  0.89011000  0.26412000  0.42238000  1.0 0.4819065425
Zn  Zn3  1  0.73588000  0.89011000  0.42238000  1.0 0.4819065425
Zn  Zn4  1  0.10989000  0.73588000  0.42238000  1.0 0.4819065425
Zn  Zn5  1  0.73588000  0.10989000  0.42238000  1.0 0.4819065425
Zn  Zn6  1  0.26412000  0.89011000  0.42238000  1.0 0.4819065425
Zn  Zn7  1  0.89011000  0.73588000  0.42238000  1.0 0.4819065425
Zn  Zn8  1  0.10989000  0.26412000  0.42238000  1.0 0.4819065425
Zn  Zn9  1  0.76412000  0.60989000  0.92238000  1.0 0.4819065425
Zn  Zn10  1  0.39011000  0.76412000  0.92238000  1.0 0.4819065425
Zn  Zn11  1  0.23588000  0.39011000  0.92238000  1.0 0.4819065425
Zn  Zn12  1  0.60989000  0.23588000  0.92238000  1.0 0.4819065425
Zn  Zn13  1  0.23588000  0.60989000  0.92238000  1.0 0.4819065425
Zn  Zn14  1  0.76412000  0.39011000  0.92238000  1.0 0.4819065425
Zn  Zn15  1  0.39011000  0.23588000  0.92238000  1.0 0.4819065425
Zn  Zn16  1  0.60989000  0.76412000  0.92238000  1.0 0.4819065425
Zn  Zn17  1  0.26369000  0.10911000  0.74412000  1.0 0.4819065425
Zn  Zn18  1  0.89089000  0.26369000  0.74412000  1.0 0.4819065425
Zn  Zn19  1  0.73631000  0.89089000  0.74412000  1.0 0.4819065425
Zn  Zn20  1  0.10911000  0.73631000  0.74412000  1.0 0.4819065425
Zn  Zn21  1  0.73631000  0.10911000  0.74412000  1.0 0.4819065425
Zn  Zn22  1  0.26369000  0.89089000  0.74412000  1.0 0.4819065425
Zn  Zn23  1  0.89089000  0.73631000  0.74412000  1.0 0.4856395016
Zn  Zn24  1  0.10911000  0.26369000  0.74412000  1.0 0.4819065425
Zn  Zn25  1  0.76369000  0.60911000  0.24412000  1.0 0.4819065425
Zn  Zn26  1  0.39089000  0.76369000  0.24412000  1.0 0.4819065425
Zn  Zn27  1  0.23631000  0.39089000  0.24412000  1.0 0.4819065425
Zn  Zn28  1  0.60911000  0.23631000  0.24412000  1.0 0.4819065425
Zn  Zn29  1  0.23631000  0.60911000  0.24412000  1.0 0.4819065425
Zn  Zn30  1  0.76369000  0.39089000  0.24412000  1.0 0.4819065425
Zn  Zn31  1  0.39089000  0.23631000  0.24412000  1.0 0.4819065425
Zn  Zn32  1  0.60911000  0.76369000  0.24412000  1.0 0.4819065425
H  H1  1  0.30090000  0.19500000  0.83660000  1.0 0.1014009828
H  H2  1  0.80500000  0.30090000  0.83660000  1.0 0.1014009828
H  H3  1  0.69910000  0.80500000  0.83660000  1.0 0.1014009828
H  H4  1  0.19500000  0.69910000  0.83660000  1.0 0.1014009828
H  H5  1  0.69910000  0.19500000  0.83660000  1.0 0.1014009828
H  H6  1  0.30090000  0.80500000  0.83660000  1.0 0.1014009828
H  H7  1  0.80500000  0.69910000  0.83660000  1.0 0.1014009828
H  H8  1  0.19500000  0.30090000  0.83660000  1.0 0.1014009828
H  H9  1  0.80090000  0.69500000  0.33660000  1.0 0.1014009828
H  H10  1  0.30500000  0.80090000  0.33660000  1.0 0.1014009828
H  H11  1  0.19910000  0.30500000  0.33660000  1.0 0.1014009828
H  H12  1  0.69500000  0.19910000  0.33660000  1.0 0.1014009828
H  H13  1  0.19910000  0.69500000  0.33660000  1.0 0.1014009828
H  H14  1  0.80090000  0.30500000  0.33660000  1.0 0.1014009828
H  H15  1  0.30500000  0.19910000  0.33660000  1.0 0.1014009828
H  H16  1  0.69500000  0.80090000  0.33660000  1.0 0.1014009828
H  H17  1  0.42950000  0.12910000  0.86190000  1.0 0.1014009828
H  H18  1  0.87090000  0.42950000  0.86190000  1.0 0.1014009828
H  H19  1  0.57050000  0.87090000  0.86190000  1.0 0.1014009828
H  H20  1  0.12910000  0.57050000  0.86190000  1.0 0.1014009828
H  H21  1  0.57050000  0.12910000  0.86190000  1.0 0.1014009828
H  H22  1  0.42950000  0.87090000  0.86190000  1.0 0.1014009828
H  H23  1  0.87090000  0.57050000  0.86190000  1.0 0.1014009828
H  H24  1  0.12910000  0.42950000  0.86190000  1.0 0.1014009828
H  H25  1  0.92950000  0.62910000  0.36190000  1.0 0.1014009828
H  H26  1  0.37090000  0.92950000  0.36190000  1.0 0.1014009828
H  H27  1  0.07050000  0.37090000  0.36190000  1.0 0.1014009828
H  H28  1  0.62910000  0.07050000  0.36190000  1.0 0.1014009828
H  H29  1  0.07050000  0.62910000  0.36190000  1.0 0.1014009828
H  H30  1  0.92950000  0.37090000  0.36190000  1.0 0.1014009828
H  H31  1  0.37090000  0.07050000  0.36190000  1.0 0.1014009828
H  H32  1  0.62910000  0.92950000  0.36190000  1.0 0.1014009828
H  H33  1  0.37460000  0.07510000  0.79340000  1.0 0.1014009828
H  H34  1  0.92490000  0.37460000  0.79340000  1.0 0.1014009828
H  H35  1  0.62540000  0.92490000  0.79340000  1.0 0.1014009828
H  H36  1  0.07510000  0.62540000  0.79340000  1.0 0.1014009828
H  H37  1  0.62540000  0.07510000  0.79340000  1.0 0.1014009828
H  H38  1  0.37460000  0.92490000  0.79340000  1.0 0.1014009828
H  H39  1  0.92490000  0.62540000  0.79340000  1.0 0.1014009828
H  H40  1  0.07510000  0.37460000  0.79340000  1.0 0.1014009828
H  H41  1  0.87460000  0.57510000  0.29340000  1.0 0.1014009828
H  H42  1  0.42490000  0.87460000  0.29340000  1.0 0.1014009828
H  H43  1  0.12540000  0.42490000  0.29340000  1.0 0.1014009828
H  H44  1  0.57510000  0.12540000  0.29340000  1.0 0.1014009828
H  H45  1  0.12540000  0.57510000  0.29340000  1.0 0.1014009828
H  H46  1  0.87460000  0.42490000  0.29340000  1.0 0.1014009828
H  H47  1  0.42490000  0.12540000  0.29340000  1.0 0.1014009828
H  H48  1  0.57510000  0.87460000  0.29340000  1.0 0.1014009828
H  H145  1  0.19990000  0.19990000  0.69680000  1.0 0.112752889
H  H146  1  0.80010000  0.19990000  0.69680000  1.0 0.112752889
H  H147  1  0.80010000  0.80010000  0.69680000  1.0 0.112752889
H  H148  1  0.19990000  0.80010000  0.69680000  1.0 0.112752889
H  H149  1  0.69990000  0.69990000  0.19680000  1.0 0.112752889
H  H150  1  0.30010000  0.69990000  0.19680000  1.0 0.112752889
H  H151  1  0.30010000  0.30010000  0.19680000  1.0 0.112752889
H  H152  1  0.69990000  0.30010000  0.19680000  1.0 0.112752889
H  H153  1  0.19280000  0.12480000  0.88290000  1.0 0.1014009828
H  H154  1  0.87520000  0.19280000  0.88290000  1.0 0.1014009828
H  H155  1  0.80720000  0.87520000  0.88290000  1.0 0.1014009828
H  H156  1  0.12480000  0.80720000  0.88290000  1.0 0.1014009828
H  H157  1  0.80720000  0.12480000  0.88290000  1.0 0.1014009828
H  H158  1  0.19280000  0.87520000  0.88290000  1.0 0.1014009828
H  H159  1  0.87520000  0.80720000  0.88290000  1.0 0.1014009828
H  H160  1  0.12480000  0.19280000  0.88290000  1.0 0.1014009828
H  H161  1  0.69280000  0.62480000  0.38290000  1.0 0.1014009828
H  H162  1  0.37520000  0.69280000  0.38290000  1.0 0.1014009828
H  H163  1  0.30720000  0.37520000  0.38290000  1.0 0.1014009828
H  H164  1  0.62480000  0.30720000  0.38290000  1.0 0.1014009828
H  H165  1  0.30720000  0.62480000  0.38290000  1.0 0.1014009828
H  H166  1  0.69280000  0.37520000  0.38290000  1.0 0.1014009828
H  H167  1  0.37520000  0.30720000  0.38290000  1.0 0.1014009828
H  H168  1  0.62480000  0.69280000  0.38290000  1.0 0.1014009828
H  H49  1  0.23730000  0.07560000  0.57220000  0.5 0.0697598069
H  H50  1  0.92440000  0.23730000  0.57220000  0.5 0.0697598069
H  H51  1  0.76270000  0.92440000  0.57220000  0.5 0.0697598069
H  H52  1  0.07560000  0.76270000  0.57220000  0.5 0.0697598069
H  H53  1  0.76270000  0.07560000  0.57220000  0.5 0.0697598069
H  H54  1  0.23730000  0.92440000  0.57220000  0.5 0.0697598069
H  H55  1  0.92440000  0.76270000  0.57220000  0.5 0.0697598069
H  H56  1  0.07560000  0.23730000  0.57220000  0.5 0.0697598069
H  H57  1  0.73730000  0.57560000  0.07220000  0.5 0.0697598069
H  H58  1  0.42440000  0.73730000  0.07220000  0.5 0.0697598069
H  H59  1  0.26270000  0.42440000  0.07220000  0.5 0.0697598069
H  H60  1  0.57560000  0.26270000  0.07220000  0.5 0.0697598069
H  H61  1  0.26270000  0.57560000  0.07220000  0.5 0.0697598069
H  H62  1  0.73730000  0.42440000  0.07220000  0.5 0.0697598069
H  H63  1  0.42440000  0.26270000  0.07220000  0.5 0.0697598069
H  H64  1  0.57560000  0.73730000  0.07220000  0.5 0.0697598069
H  H65  1  0.33320000  0.18090000  0.50280000  0.5 0.0697598069
H  H66  1  0.81910000  0.33320000  0.50280000  0.5 0.0697598069
H  H67  1  0.66680000  0.81910000  0.50280000  0.5 0.0697598069
H  H68  1  0.18090000  0.66680000  0.50280000  0.5 0.0697598069
H  H69  1  0.66680000  0.18090000  0.50280000  0.5 0.0697598069
H  H70  1  0.33320000  0.81910000  0.50280000  0.5 0.0697598069
H  H71  1  0.81910000  0.66680000  0.50280000  0.5 0.0697598069
H  H72  1  0.18090000  0.33320000  0.50280000  0.5 0.0697598069
H  H73  1  0.83320000  0.68090000  0.00280000  0.5 0.0697598069
H  H74  1  0.31910000  0.83320000  0.00280000  0.5 0.0697598069
H  H75  1  0.16680000  0.31910000  0.00280000  0.5 0.0697598069
H  H76  1  0.68090000  0.16680000  0.00280000  0.5 0.0697598069
H  H77  1  0.16680000  0.68090000  0.00280000  0.5 0.0697598069
H  H78  1  0.83320000  0.31910000  0.00280000  0.5 0.0697598069
H  H79  1  0.31910000  0.16680000  0.00280000  0.5 0.0697598069
H  H80  1  0.68090000  0.83320000  0.00280000  0.5 0.0697598069
H  H81  1  0.33180000  0.18280000  0.63920000  0.5 0.0902607351
H  H82  1  0.81720000  0.33180000  0.63920000  0.5 0.0902607351
H  H83  1  0.66820000  0.81720000  0.63920000  0.5 0.0902607351
H  H84  1  0.18280000  0.66820000  0.63920000  0.5 0.0902607351
H  H85  1  0.66820000  0.18280000  0.63920000  0.5 0.0902607351
H  H86  1  0.33180000  0.81720000  0.63920000  0.5 0.0902607351
H  H87  1  0.81720000  0.66820000  0.63920000  0.5 0.0902607351
H  H88  1  0.18280000  0.33180000  0.63920000  0.5 0.0902607351
H  H89  1  0.83180000  0.68280000  0.13920000  0.5 0.0902607351
H  H90  1  0.31720000  0.83180000  0.13920000  0.5 0.0902607351
H  H91  1  0.16820000  0.31720000  0.13920000  0.5 0.0902607351
H  H92  1  0.68280000  0.16820000  0.13920000  0.5 0.0902607351
H  H93  1  0.16820000  0.68280000  0.13920000  0.5 0.0902607351
H  H94  1  0.83180000  0.31720000  0.13920000  0.5 0.0902607351
H  H95  1  0.31720000  0.16820000  0.13920000  0.5 0.0902607351
H  H96  1  0.68280000  0.83180000  0.13920000  0.5 0.0902607351
H  H97  1  0.22870000  0.08850000  0.58360000  0.5 0.0790168767
H  H98  1  0.91150000  0.22870000  0.58360000  0.5 0.0790168767
H  H99  1  0.77130000  0.91150000  0.58360000  0.5 0.0790168767
H  H100  1  0.08850000  0.77130000  0.58360000  0.5 0.0790168767
H  H101  1  0.77130000  0.08850000  0.58360000  0.5 0.0790168767
H  H102  1  0.22870000  0.91150000  0.58360000  0.5 0.0790168767
H  H103  1  0.91150000  0.77130000  0.58360000  0.5 0.0790168767
H  H104  1  0.08850000  0.22870000  0.58360000  0.5 0.0790168767
H  H105  1  0.72870000  0.58850000  0.08360000  0.5 0.0790168767
H  H106  1  0.41150000  0.72870000  0.08360000  0.5 0.0790168767
H  H107  1  0.27130000  0.41150000  0.08360000  0.5 0.0790168767
H  H108  1  0.58850000  0.27130000  0.08360000  0.5 0.0790168767
H  H109  1  0.27130000  0.58850000  0.08360000  0.5 0.0790168767
H  H110  1  0.72870000  0.41150000  0.08360000  0.5 0.0790168767
H  H111  1  0.41150000  0.27130000  0.08360000  0.5 0.0790168767
H  H112  1  0.58850000  0.72870000  0.08360000  0.5 0.0790168767
H  H113  1  0.34830000  0.17140000  0.53010000  0.5 0.0902607351
H  H114  1  0.82860000  0.34830000  0.53010000  0.5 0.0902607351
H  H115  1  0.65170000  0.82860000  0.53010000  0.5 0.0902607351
H  H116  1  0.17140000  0.65170000  0.53010000  0.5 0.0902607351
H  H117  1  0.65170000  0.17140000  0.53010000  0.5 0.0902607351
H  H118  1  0.34830000  0.82860000  0.53010000  0.5 0.0902607351
H  H119  1  0.82860000  0.65170000  0.53010000  0.5 0.0902607351
H  H120  1  0.17140000  0.34830000  0.53010000  0.5 0.0902607351
H  H121  1  0.84830000  0.67140000  0.03010000  0.5 0.0902607351
H  H122  1  0.32860000  0.84830000  0.03010000  0.5 0.0902607351
H  H123  1  0.15170000  0.32860000  0.03010000  0.5 0.0902607351
H  H124  1  0.67140000  0.15170000  0.03010000  0.5 0.0902607351
H  H125  1  0.15170000  0.67140000  0.03010000  0.5 0.0902607351
H  H126  1  0.84830000  0.32860000  0.03010000  0.5 0.0902607351
H  H127  1  0.32860000  0.15170000  0.03010000  0.5 0.0902607351
H  H128  1  0.67140000  0.84830000  0.03010000  0.5 0.0902607351
H  H129  1  0.34580000  0.16370000  0.66610000  0.5 0.0790168767
H  H130  1  0.83630000  0.34580000  0.66610000  0.5 0.0790168767
H  H131  1  0.65420000  0.83630000  0.66610000  0.5 0.0790168767
H  H132  1  0.16370000  0.65420000  0.66610000  0.5 0.0790168767
H  H133  1  0.65420000  0.16370000  0.66610000  0.5 0.0790168767
H  H134  1  0.34580000  0.83630000  0.66610000  0.5 0.0790168767
H  H135  1  0.83630000  0.65420000  0.66610000  0.5 0.0790168767
H  H136  1  0.16370000  0.34580000  0.66610000  0.5 0.0790168767
H  H137  1  0.84580000  0.66370000  0.16610000  0.5 0.0790168767
H  H138  1  0.33630000  0.84580000  0.16610000  0.5 0.0790168767
H  H139  1  0.15420000  0.33630000  0.16610000  0.5 0.0790168767
H  H140  1  0.66370000  0.15420000  0.16610000  0.5 0.0790168767
H  H141  1  0.15420000  0.66370000  0.16610000  0.5 0.0790168767
H  H142  1  0.84580000  0.33630000  0.16610000  0.5 0.0790168767
H  H143  1  0.33630000  0.15420000  0.16610000  0.5 0.0790168767
H  H144  1  0.66370000  0.84580000  0.16610000  0.5 0.0790168767
H  H169  1  0.30160000  0.00560000  0.72890000  0.5 0.1198414548
H  H170  1  0.99440000  0.30160000  0.72890000  0.5 0.1198414548
H  H171  1  0.69840000  0.99440000  0.72890000  0.5 0.1198414548
H  H172  1  0.00560000  0.69840000  0.72890000  0.5 0.1198414548
H  H173  1  0.69840000  0.00560000  0.72890000  0.5 0.1198414548
H  H174  1  0.30160000  0.99440000  0.72890000  0.5 0.1198414548
H  H175  1  0.99440000  0.69840000  0.72890000  0.5 0.1198414548
H  H176  1  0.00560000  0.30160000  0.72890000  0.5 0.1198414548
H  H177  1  0.80160000  0.50560000  0.22890000  0.5 0.1198414548
H  H178  1  0.49440000  0.80160000  0.22890000  0.5 0.1198414548
H  H179  1  0.19840000  0.49440000  0.22890000  0.5 0.1198414548
H  H180  1  0.50560000  0.19840000  0.22890000  0.5 0.1198414548
H  H181  1  0.19840000  0.50560000  0.22890000  0.5 0.1198414548
H  H182  1  0.80160000  0.49440000  0.22890000  0.5 0.1198414548
H  H183  1  0.49440000  0.19840000  0.22890000  0.5 0.1198414548
H  H184  1  0.50560000  0.80160000  0.22890000  0.5 0.1198414548
H  H185  1  0.16590000  0.94720000  0.76670000  0.5 0.0902607351
H  H186  1  0.05280000  0.16590000  0.76670000  0.5 0.0902607351
H  H187  1  0.83410000  0.05280000  0.76670000  0.5 0.0902607351
H  H188  1  0.94720000  0.83410000  0.76670000  0.5 0.0902607351
H  H189  1  0.83410000  0.94720000  0.76670000  0.5 0.0902607351
H  H190  1  0.16590000  0.05280000  0.76670000  0.5 0.0902607351
H  H191  1  0.05280000  0.83410000  0.76670000  0.5 0.0902607351
H  H192  1  0.94720000  0.16590000  0.76670000  0.5 0.0902607351
H  H193  1  0.66590000  0.44720000  0.26670000  0.5 0.0902607351
H  H194  1  0.55280000  0.66590000  0.26670000  0.5 0.0902607351
H  H195  1  0.33410000  0.55280000  0.26670000  0.5 0.0902607351
H  H196  1  0.44720000  0.33410000  0.26670000  0.5 0.0902607351
H  H197  1  0.33410000  0.44720000  0.26670000  0.5 0.0902607351
H  H198  1  0.66590000  0.55280000  0.26670000  0.5 0.0902607351
H  H199  1  0.55280000  0.33410000  0.26670000  0.5 0.0902607351
H  H200  1  0.44720000  0.66590000  0.26670000  0.5 0.0902607351
H  H201  1  0.16170000  0.03810000  0.79230000  0.5 0.0902607351
H  H202  1  0.96190000  0.16170000  0.79230000  0.5 0.0902607351
H  H203  1  0.83830000  0.96190000  0.79230000  0.5 0.0902607351
H  H204  1  0.03810000  0.83830000  0.79230000  0.5 0.0902607351
H  H205  1  0.83830000  0.03810000  0.79230000  0.5 0.0902607351
H  H206  1  0.16170000  0.96190000  0.79230000  0.5 0.0902607351
H  H207  1  0.96190000  0.83830000  0.79230000  0.5 0.0902607351
H  H208  1  0.03810000  0.16170000  0.79230000  0.5 0.0902607351
H  H209  1  0.66170000  0.53810000  0.29230000  0.5 0.0902607351
H  H210  1  0.46190000  0.66170000  0.29230000  0.5 0.0902607351
H  H211  1  0.33830000  0.46190000  0.29230000  0.5 0.0902607351
H  H212  1  0.53810000  0.33830000  0.29230000  0.5 0.0902607351
H  H213  1  0.33830000  0.53810000  0.29230000  0.5 0.0902607351
H  H214  1  0.66170000  0.46190000  0.29230000  0.5 0.0902607351
H  H215  1  0.46190000  0.33830000  0.29230000  0.5 0.0902607351
H  H216  1  0.53810000  0.66170000  0.29230000  0.5 0.0902607351
H  H217  1  0.25920000  0.99240000  0.49010000  0.5 0.0902607351
H  H218  1  0.00760000  0.25920000  0.49010000  0.5 0.0902607351
H  H219  1  0.74080000  0.00760000  0.49010000  0.5 0.0902607351
H  H220  1  0.99240000  0.74080000  0.49010000  0.5 0.0902607351
H  H221  1  0.74080000  0.99240000  0.49010000  0.5 0.0902607351
H  H222  1  0.25920000  0.00760000  0.49010000  0.5 0.0902607351
H  H223  1  0.00760000  0.74080000  0.49010000  0.5 0.0902607351
H  H224  1  0.99240000  0.25920000  0.49010000  0.5 0.0902607351
H  H225  1  0.75920000  0.49240000  0.99010000  0.5 0.0902607351
H  H226  1  0.50760000  0.75920000  0.99010000  0.5 0.0902607351
H  H227  1  0.24080000  0.50760000  0.99010000  0.5 0.0902607351
H  H228  1  0.49240000  0.24080000  0.99010000  0.5 0.0902607351
H  H229  1  0.24080000  0.49240000  0.99010000  0.5 0.0902607351
H  H230  1  0.75920000  0.50760000  0.99010000  0.5 0.0902607351
H  H231  1  0.50760000  0.24080000  0.99010000  0.5 0.0902607351
H  H232  1  0.49240000  0.75920000  0.99010000  0.5 0.0902607351
H  H233  1  0.26500000  0.95710000  0.27560000  0.5 0.112752889
H  H234  1  0.04290000  0.26500000  0.27560000  0.5 0.112752889
H  H235  1  0.73500000  0.04290000  0.27560000  0.5 0.112752889
H  H236  1  0.95710000  0.73500000  0.27560000  0.5 0.112752889
H  H237  1  0.73500000  0.95710000  0.27560000  0.5 0.112752889
H  H238  1  0.26500000  0.04290000  0.27560000  0.5 0.112752889
H  H239  1  0.04290000  0.73500000  0.27560000  0.5 0.112752889
H  H240  1  0.95710000  0.26500000  0.27560000  0.5 0.112752889
H  H241  1  0.76500000  0.45710000  0.77560000  0.5 0.112752889
H  H242  1  0.54290000  0.76500000  0.77560000  0.5 0.112752889
H  H243  1  0.23500000  0.54290000  0.77560000  0.5 0.112752889
H  H244  1  0.45710000  0.23500000  0.77560000  0.5 0.112752889
H  H245  1  0.23500000  0.45710000  0.77560000  0.5 0.112752889
H  H246  1  0.76500000  0.54290000  0.77560000  0.5 0.112752889
H  H247  1  0.54290000  0.23500000  0.77560000  0.5 0.112752889
H  H248  1  0.45710000  0.76500000  0.77560000  0.5 0.112752889
H  H249  1  0.25770000  0.04920000  0.28570000  0.5 0.1198414548
H  H250  1  0.95080000  0.25770000  0.28570000  0.5 0.1198414548
H  H251  1  0.74230000  0.95080000  0.28570000  0.5 0.1198414548
H  H252  1  0.04920000  0.74230000  0.28570000  0.5 0.1198414548
H  H253  1  0.74230000  0.04920000  0.28570000  0.5 0.1198414548
H  H254  1  0.25770000  0.95080000  0.28570000  0.5 0.1198414548
H  H255  1  0.95080000  0.74230000  0.28570000  0.5 0.1198414548
H  H256  1  0.04920000  0.25770000  0.28570000  0.5 0.1198414548
H  H257  1  0.75770000  0.54920000  0.78570000  0.5 0.1198414548
H  H258  1  0.45080000  0.75770000  0.78570000  0.5 0.1198414548
H  H259  1  0.24230000  0.45080000  0.78570000  0.5 0.1198414548
H  H260  1  0.54920000  0.24230000  0.78570000  0.5 0.1198414548
H  H261  1  0.24230000  0.54920000  0.78570000  0.5 0.1198414548
H  H262  1  0.75770000  0.45080000  0.78570000  0.5 0.1198414548
H  H263  1  0.45080000  0.24230000  0.78570000  0.5 0.1198414548
H  H264  1  0.54920000  0.75770000  0.78570000  0.5 0.1198414548
H  H265  1  0.20420000  0.19210000  0.47840000  0.5 0.1014009828
H  H266  1  0.80790000  0.20420000  0.47840000  0.5 0.1014009828
H  H267  1  0.79580000  0.80790000  0.47840000  0.5 0.1014009828
H  H268  1  0.19210000  0.79580000  0.47840000  0.5 0.1014009828
H  H269  1  0.79580000  0.19210000  0.47840000  0.5 0.1014009828
H  H270  1  0.20420000  0.80790000  0.47840000  0.5 0.1014009828
H  H271  1  0.80790000  0.79580000  0.47840000  0.5 0.1014009828
H  H272  1  0.19210000  0.20420000  0.47840000  0.5 0.1014009828
H  H273  1  0.70420000  0.69210000  0.97840000  0.5 0.1014009828
H  H274  1  0.30790000  0.70420000  0.97840000  0.5 0.1014009828
H  H275  1  0.29580000  0.30790000  0.97840000  0.5 0.1014009828
H  H276  1  0.69210000  0.29580000  0.97840000  0.5 0.1014009828
H  H277  1  0.29580000  0.69210000  0.97840000  0.5 0.1014009828
H  H278  1  0.70420000  0.30790000  0.97840000  0.5 0.1014009828
H  H279  1  0.30790000  0.29580000  0.97840000  0.5 0.1014009828
H  H280  1  0.69210000  0.70420000  0.97840000  0.5 0.1014009828
H  H281  1  0.12810000  0.19850000  0.28830000  0.5 0.112752889
H  H282  1  0.80150000  0.12810000  0.28830000  0.5 0.112752889
H  H283  1  0.87190000  0.80150000  0.28830000  0.5 0.112752889
H  H284  1  0.19850000  0.87190000  0.28830000  0.5 0.112752889
H  H285  1  0.87190000  0.19850000  0.28830000  0.5 0.112752889
H  H286  1  0.12810000  0.80150000  0.28830000  0.5 0.112752889
H  H287  1  0.80150000  0.87190000  0.28830000  0.5 0.112752889
H  H288  1  0.19850000  0.12810000  0.28830000  0.5 0.112752889
H  H289  1  0.62810000  0.69850000  0.78830000  0.5 0.112752889
H  H290  1  0.30150000  0.62810000  0.78830000  0.5 0.112752889
H  H291  1  0.37190000  0.30150000  0.78830000  0.5 0.112752889
H  H292  1  0.69850000  0.37190000  0.78830000  0.5 0.112752889
H  H293  1  0.37190000  0.69850000  0.78830000  0.5 0.112752889
H  H294  1  0.62810000  0.30150000  0.78830000  0.5 0.112752889
H  H295  1  0.30150000  0.37190000  0.78830000  0.5 0.112752889
H  H296  1  0.69850000  0.62810000  0.78830000  0.5 0.112752889
H  H297  1  0.18050000  0.12210000  0.28620000  0.5 0.1014009828
H  H298  1  0.87790000  0.18050000  0.28620000  0.5 0.1014009828
H  H299  1  0.81950000  0.87790000  0.28620000  0.5 0.1014009828
H  H300  1  0.12210000  0.81950000  0.28620000  0.5 0.1014009828
H  H301  1  0.81950000  0.12210000  0.28620000  0.5 0.1014009828
H  H302  1  0.18050000  0.87790000  0.28620000  0.5 0.1014009828
H  H303  1  0.87790000  0.81950000  0.28620000  0.5 0.1014009828
H  H304  1  0.12210000  0.18050000  0.28620000  0.5 0.1014009828
H  H305  1  0.68050000  0.62210000  0.78620000  0.5 0.1014009828
H  H306  1  0.37790000  0.68050000  0.78620000  0.5 0.1014009828
H  H307  1  0.31950000  0.37790000  0.78620000  0.5 0.1014009828
H  H308  1  0.62210000  0.31950000  0.78620000  0.5 0.1014009828
H  H309  1  0.31950000  0.62210000  0.78620000  0.5 0.1014009828
H  H310  1  0.68050000  0.37790000  0.78620000  0.5 0.1014009828
H  H311  1  0.37790000  0.31950000  0.78620000  0.5 0.1014009828
H  H312  1  0.62210000  0.68050000  0.78620000  0.5 0.1014009828
C  C1  1  0.32550000  0.17050000  0.83580000  1.0 0.0192474119
C  C2  1  0.82950000  0.32550000  0.83580000  1.0 0.0192474119
C  C3  1  0.67450000  0.82950000  0.83580000  1.0 0.0192474119
C  C4  1  0.17050000  0.67450000  0.83580000  1.0 0.0192474119
C  C5  1  0.67450000  0.17050000  0.83580000  1.0 0.0192474119
C  C6  1  0.32550000  0.82950000  0.83580000  1.0 0.0192474119
C  C7  1  0.82950000  0.67450000  0.83580000  1.0 0.0192474119
C  C8  1  0.17050000  0.32550000  0.83580000  1.0 0.0192474119
C  C9  1  0.82550000  0.67050000  0.33580000  1.0 0.0192474119
C  C10  1  0.32950000  0.82550000  0.33580000  1.0 0.0192474119
C  C11  1  0.17450000  0.32950000  0.33580000  1.0 0.0192474119
C  C12  1  0.67050000  0.17450000  0.33580000  1.0 0.0192474119
C  C13  1  0.17450000  0.67050000  0.33580000  1.0 0.0192474119
C  C14  1  0.82550000  0.32950000  0.33580000  1.0 0.0192474119
C  C15  1  0.32950000  0.17450000  0.33580000  1.0 0.0192474119
C  C16  1  0.67050000  0.82550000  0.33580000  1.0 0.0192474119
C  C17  1  0.39640000  0.13570000  0.84980000  1.0 -0.0813739547
C  C18  1  0.86430000  0.39640000  0.84980000  1.0 -0.0813739547
C  C19  1  0.60360000  0.86430000  0.84980000  1.0 -0.0813739547
C  C20  1  0.13570000  0.60360000  0.84980000  1.0 -0.0813739547
C  C21  1  0.60360000  0.13570000  0.84980000  1.0 -0.0813739547
C  C22  1  0.39640000  0.86430000  0.84980000  1.0 -0.0813739547
C  C23  1  0.86430000  0.60360000  0.84980000  1.0 -0.0813739547
C  C24  1  0.13570000  0.39640000  0.84980000  1.0 -0.0813739547
C  C25  1  0.89640000  0.63570000  0.34980000  1.0 -0.0813739547
C  C26  1  0.36430000  0.89640000  0.34980000  1.0 -0.0813739547
C  C27  1  0.10360000  0.36430000  0.34980000  1.0 -0.0813739547
C  C28  1  0.63570000  0.10360000  0.34980000  1.0 -0.0813739547
C  C29  1  0.10360000  0.63570000  0.34980000  1.0 -0.0813739547
C  C30  1  0.89640000  0.36430000  0.34980000  1.0 -0.0813739547
C  C31  1  0.36430000  0.10360000  0.34980000  1.0 -0.0813739547
C  C32  1  0.63570000  0.89640000  0.34980000  1.0 -0.0813739547
C  C33  1  0.36590000  0.10620000  0.81220000  1.0 -0.0698807966
C  C34  1  0.89380000  0.36590000  0.81220000  1.0 -0.0698807966
C  C35  1  0.63410000  0.89380000  0.81220000  1.0 -0.0698807966
C  C36  1  0.10620000  0.63410000  0.81220000  1.0 -0.0698807966
C  C37  1  0.63410000  0.10620000  0.81220000  1.0 -0.0698807966
C  C38  1  0.36590000  0.89380000  0.81220000  1.0 -0.0698807966
C  C39  1  0.89380000  0.63410000  0.81220000  1.0 -0.0698807966
C  C40  1  0.10620000  0.36590000  0.81220000  1.0 -0.0698807966
C  C41  1  0.86590000  0.60620000  0.31220000  1.0 -0.0698807966
C  C42  1  0.39380000  0.86590000  0.31220000  1.0 -0.0698807966
C  C43  1  0.13410000  0.39380000  0.31220000  1.0 -0.0698807966
C  C44  1  0.60620000  0.13410000  0.31220000  1.0 -0.0698807966
C  C45  1  0.13410000  0.60620000  0.31220000  1.0 -0.0698807966
C  C46  1  0.86590000  0.39380000  0.31220000  1.0 -0.0698807966
C  C47  1  0.39380000  0.13410000  0.31220000  1.0 -0.0698807966
C  C48  1  0.60620000  0.86590000  0.31220000  1.0 -0.0698807966
C  C145  1  0.18770000  0.18770000  0.74110000  1.0 -0.1093275135
C  C146  1  0.81230000  0.18770000  0.74110000  1.0 -0.1093275135
C  C147  1  0.81230000  0.81230000  0.74110000  1.0 -0.1093275135
C  C148  1  0.18770000  0.81230000  0.74110000  1.0 -0.1156269049
C  C149  1  0.68770000  0.68770000  0.24110000  1.0 -0.1093275135
C  C150  1  0.31230000  0.68770000  0.24110000  1.0 -0.1093275135
C  C151  1  0.31230000  0.31230000  0.24110000  1.0 -0.1093275135
C  C152  1  0.68770000  0.31230000  0.24110000  1.0 -0.1093275135
C  C153  1  0.18460000  0.14650000  0.84490000  1.0 -0.0519037606
C  C154  1  0.85350000  0.18460000  0.84490000  1.0 -0.0519037606
C  C155  1  0.81540000  0.85350000  0.84490000  1.0 -0.0519037606
C  C156  1  0.14650000  0.81540000  0.84490000  1.0 -0.0519037606
C  C157  1  0.81540000  0.14650000  0.84490000  1.0 -0.0519037606
C  C158  1  0.18460000  0.85350000  0.84490000  1.0 -0.0519037606
C  C159  1  0.85350000  0.81540000  0.84490000  1.0 -0.0519037606
C  C160  1  0.14650000  0.18460000  0.84490000  1.0 -0.0519037606
C  C161  1  0.68460000  0.64650000  0.34490000  1.0 -0.0519037606
C  C162  1  0.35350000  0.68460000  0.34490000  1.0 -0.0519037606
C  C163  1  0.31540000  0.35350000  0.34490000  1.0 -0.0519037606
C  C164  1  0.64650000  0.31540000  0.34490000  1.0 -0.0519037606
C  C165  1  0.31540000  0.64650000  0.34490000  1.0 -0.0519037606
C  C166  1  0.68460000  0.35350000  0.34490000  1.0 -0.0519037606
C  C167  1  0.35350000  0.31540000  0.34490000  1.0 -0.0519037606
C  C168  1  0.64650000  0.68460000  0.34490000  1.0 -0.0519037606
C  C49  1  0.26050000  0.10150000  0.57190000  0.5 -0.0519037606
C  C50  1  0.89850000  0.26050000  0.57190000  0.5 -0.0519037606
C  C51  1  0.73950000  0.89850000  0.57190000  0.5 -0.0519037606
C  C52  1  0.10150000  0.73950000  0.57190000  0.5 -0.0519037606
C  C53  1  0.73950000  0.10150000  0.57190000  0.5 -0.0519037606
C  C54  1  0.26050000  0.89850000  0.57190000  0.5 -0.0519037606
C  C55  1  0.89850000  0.73950000  0.57190000  0.5 -0.0519037606
C  C56  1  0.10150000  0.26050000  0.57190000  0.5 -0.0519037606
C  C57  1  0.76050000  0.60150000  0.07190000  0.5 -0.0519037606
C  C58  1  0.39850000  0.76050000  0.07190000  0.5 -0.0519037606
C  C59  1  0.23950000  0.39850000  0.07190000  0.5 -0.0519037606
C  C60  1  0.60150000  0.23950000  0.07190000  0.5 -0.0519037606
C  C61  1  0.23950000  0.60150000  0.07190000  0.5 -0.0519037606
C  C62  1  0.76050000  0.39850000  0.07190000  0.5 -0.0519037606
C  C63  1  0.39850000  0.23950000  0.07190000  0.5 -0.0519037606
C  C64  1  0.60150000  0.76050000  0.07190000  0.5 -0.0519037606
C  C65  1  0.31420000  0.16040000  0.53300000  0.5 0.0192474119
C  C66  1  0.83960000  0.31420000  0.53300000  0.5 0.0192474119
C  C67  1  0.68580000  0.83960000  0.53300000  0.5 0.0192474119
C  C68  1  0.16040000  0.68580000  0.53300000  0.5 0.0192474119
C  C69  1  0.68580000  0.16040000  0.53300000  0.5 0.0192474119
C  C70  1  0.31420000  0.83960000  0.53300000  0.5 0.0192474119
C  C71  1  0.83960000  0.68580000  0.53300000  0.5 0.0192474119
C  C72  1  0.16040000  0.31420000  0.53300000  0.5 0.0192474119
C  C73  1  0.81420000  0.66040000  0.03300000  0.5 0.0192474119
C  C74  1  0.33960000  0.81420000  0.03300000  0.5 0.0192474119
C  C75  1  0.18580000  0.33960000  0.03300000  0.5 0.0192474119
C  C76  1  0.66040000  0.18580000  0.03300000  0.5 0.0192474119
C  C77  1  0.18580000  0.66040000  0.03300000  0.5 0.0192474119
C  C78  1  0.81420000  0.33960000  0.03300000  0.5 0.0192474119
C  C79  1  0.33960000  0.18580000  0.03300000  0.5 0.0192474119
C  C80  1  0.66040000  0.81420000  0.03300000  0.5 0.0192474119
C  C81  1  0.31340000  0.16150000  0.60940000  0.5 0.031148284
C  C82  1  0.83850000  0.31340000  0.60940000  0.5 0.031148284
C  C83  1  0.68660000  0.83850000  0.60940000  0.5 0.031148284
C  C84  1  0.16150000  0.68660000  0.60940000  0.5 0.031148284
C  C85  1  0.68660000  0.16150000  0.60940000  0.5 0.031148284
C  C86  1  0.31340000  0.83850000  0.60940000  0.5 0.031148284
C  C87  1  0.83850000  0.68660000  0.60940000  0.5 0.031148284
C  C88  1  0.16150000  0.31340000  0.60940000  0.5 0.031148284
C  C89  1  0.81340000  0.66150000  0.10940000  0.5 0.031148284
C  C90  1  0.33850000  0.81340000  0.10940000  0.5 0.031148284
C  C91  1  0.18660000  0.33850000  0.10940000  0.5 0.031148284
C  C92  1  0.66150000  0.18660000  0.10940000  0.5 0.031148284
C  C93  1  0.18660000  0.66150000  0.10940000  0.5 0.031148284
C  C94  1  0.81340000  0.33850000  0.10940000  0.5 0.031148284
C  C95  1  0.33850000  0.18660000  0.10940000  0.5 0.031148284
C  C96  1  0.66150000  0.81340000  0.10940000  0.5 0.031148284
C  C97  1  0.25750000  0.10780000  0.58710000  0.5 0.0525292999
C  C98  1  0.89220000  0.25750000  0.58710000  0.5 0.0525292999
C  C99  1  0.74250000  0.89220000  0.58710000  0.5 0.0525292999
C  C100  1  0.10780000  0.74250000  0.58710000  0.5 0.0525292999
C  C101  1  0.74250000  0.10780000  0.58710000  0.5 0.0525292999
C  C102  1  0.25750000  0.89220000  0.58710000  0.5 0.0525292999
C  C103  1  0.89220000  0.74250000  0.58710000  0.5 0.0525292999
C  C104  1  0.10780000  0.25750000  0.58710000  0.5 0.0525292999
C  C105  1  0.75750000  0.60780000  0.08710000  0.5 0.0525292999
C  C106  1  0.39220000  0.75750000  0.08710000  0.5 0.0525292999
C  C107  1  0.24250000  0.39220000  0.08710000  0.5 0.0525292999
C  C108  1  0.60780000  0.24250000  0.08710000  0.5 0.0525292999
C  C109  1  0.24250000  0.60780000  0.08710000  0.5 0.0525292999
C  C110  1  0.75750000  0.39220000  0.08710000  0.5 0.0525292999
C  C111  1  0.39220000  0.24250000  0.08710000  0.5 0.0525292999
C  C112  1  0.60780000  0.75750000  0.08710000  0.5 0.0525292999
C  C113  1  0.32440000  0.15420000  0.55720000  0.5 0.0121117616
C  C114  1  0.84580000  0.32440000  0.55720000  0.5 0.0121117616
C  C115  1  0.67560000  0.84580000  0.55720000  0.5 0.0121117616
C  C116  1  0.15420000  0.67560000  0.55720000  0.5 0.0121117616
C  C117  1  0.67560000  0.15420000  0.55720000  0.5 0.0121117616
C  C118  1  0.32440000  0.84580000  0.55720000  0.5 0.0121117616
C  C119  1  0.84580000  0.67560000  0.55720000  0.5 0.0121117616
C  C120  1  0.15420000  0.32440000  0.55720000  0.5 0.0121117616
C  C121  1  0.82440000  0.65420000  0.05720000  0.5 0.0192474119
C  C122  1  0.34580000  0.82440000  0.05720000  0.5 0.0192474119
C  C123  1  0.17560000  0.34580000  0.05720000  0.5 0.0192474119
C  C124  1  0.65420000  0.17560000  0.05720000  0.5 0.0192474119
C  C125  1  0.17560000  0.65420000  0.05720000  0.5 0.0192474119
C  C126  1  0.82440000  0.34580000  0.05720000  0.5 0.0192474119
C  C127  1  0.34580000  0.17560000  0.05720000  0.5 0.0192474119
C  C128  1  0.65420000  0.82440000  0.05720000  0.5 0.0192474119
C  C129  1  0.32310000  0.14980000  0.63330000  0.5 0.0192474119
C  C130  1  0.85020000  0.32310000  0.63330000  0.5 0.0192474119
C  C131  1  0.67690000  0.85020000  0.63330000  0.5 0.0192474119
C  C132  1  0.14980000  0.67690000  0.63330000  0.5 0.0192474119
C  C133  1  0.67690000  0.14980000  0.63330000  0.5 0.0192474119
C  C134  1  0.32310000  0.85020000  0.63330000  0.5 0.0192474119
C  C135  1  0.85020000  0.67690000  0.63330000  0.5 0.0192474119
C  C136  1  0.14980000  0.32310000  0.63330000  0.5 0.0192474119
C  C137  1  0.82310000  0.64980000  0.13330000  0.5 0.0192474119
C  C138  1  0.35020000  0.82310000  0.13330000  0.5 0.0192474119
C  C139  1  0.17690000  0.35020000  0.13330000  0.5 0.0192474119
C  C140  1  0.64980000  0.17690000  0.13330000  0.5 0.0192474119
C  C141  1  0.17690000  0.64980000  0.13330000  0.5 0.0192474119
C  C142  1  0.82310000  0.35020000  0.13330000  0.5 0.0192474119
C  C143  1  0.35020000  0.17690000  0.13330000  0.5 0.0192474119
C  C144  1  0.64980000  0.82310000  0.13330000  0.5 0.0192474119
C  C169  1  0.26810000  0.00240000  0.74120000  0.5 -0.0698807966
C  C170  1  0.99760000  0.26810000  0.74120000  0.5 -0.0698807966
C  C171  1  0.73190000  0.99760000  0.74120000  0.5 -0.0698807966
C  C172  1  0.00240000  0.73190000  0.74120000  0.5 -0.0698807966
C  C173  1  0.73190000  0.00240000  0.74120000  0.5 -0.0698807966
C  C174  1  0.26810000  0.99760000  0.74120000  0.5 -0.0698807966
C  C175  1  0.99760000  0.73190000  0.74120000  0.5 -0.0698807966
C  C176  1  0.00240000  0.26810000  0.74120000  0.5 -0.0698807966
C  C177  1  0.76810000  0.50240000  0.24120000  0.5 -0.0698807966
C  C178  1  0.49760000  0.76810000  0.24120000  0.5 -0.0698807966
C  C179  1  0.23190000  0.49760000  0.24120000  0.5 -0.0698807966
C  C180  1  0.50240000  0.23190000  0.24120000  0.5 -0.0698807966
C  C181  1  0.23190000  0.50240000  0.24120000  0.5 -0.0698807966
C  C182  1  0.76810000  0.49760000  0.24120000  0.5 -0.0698807966
C  C183  1  0.49760000  0.23190000  0.24120000  0.5 -0.0698807966
C  C184  1  0.50240000  0.76810000  0.24120000  0.5 -0.0698807966
C  C185  1  0.19210000  0.96980000  0.76240000  0.5 0.031148284
C  C186  1  0.03020000  0.19210000  0.76240000  0.5 0.031148284
C  C187  1  0.80790000  0.03020000  0.76240000  0.5 0.031148284
C  C188  1  0.96980000  0.80790000  0.76240000  0.5 0.031148284
C  C189  1  0.80790000  0.96980000  0.76240000  0.5 0.031148284
C  C190  1  0.19210000  0.03020000  0.76240000  0.5 0.031148284
C  C191  1  0.03020000  0.80790000  0.76240000  0.5 0.031148284
C  C192  1  0.96980000  0.19210000  0.76240000  0.5 0.031148284
C  C193  1  0.69210000  0.46980000  0.26240000  0.5 0.031148284
C  C194  1  0.53020000  0.69210000  0.26240000  0.5 0.031148284
C  C195  1  0.30790000  0.53020000  0.26240000  0.5 0.031148284
C  C196  1  0.46980000  0.30790000  0.26240000  0.5 0.031148284
C  C197  1  0.30790000  0.46980000  0.26240000  0.5 0.031148284
C  C198  1  0.69210000  0.53020000  0.26240000  0.5 0.031148284
C  C199  1  0.53020000  0.30790000  0.26240000  0.5 0.031148284
C  C200  1  0.46980000  0.69210000  0.26240000  0.5 0.031148284
C  C201  1  0.18980000  0.02070000  0.77670000  0.5 -0.0220902723
C  C202  1  0.97930000  0.18980000  0.77670000  0.5 -0.0220902723
C  C203  1  0.81020000  0.97930000  0.77670000  0.5 -0.0220902723
C  C204  1  0.02070000  0.81020000  0.77670000  0.5 -0.0220902723
C  C205  1  0.81020000  0.02070000  0.77670000  0.5 -0.0220902723
C  C206  1  0.18980000  0.97930000  0.77670000  0.5 -0.0220902723
C  C207  1  0.97930000  0.81020000  0.77670000  0.5 -0.0220902723
C  C208  1  0.02070000  0.18980000  0.77670000  0.5 -0.0220902723
C  C209  1  0.68980000  0.52070000  0.27670000  0.5 -0.0220902723
C  C210  1  0.47930000  0.68980000  0.27670000  0.5 -0.0220902723
C  C211  1  0.31020000  0.47930000  0.27670000  0.5 -0.0220902723
C  C212  1  0.52070000  0.31020000  0.27670000  0.5 -0.0220902723
C  C213  1  0.31020000  0.52070000  0.27670000  0.5 -0.0220902723
C  C214  1  0.68980000  0.47930000  0.27670000  0.5 -0.0220902723
C  C215  1  0.47930000  0.31020000  0.27670000  0.5 -0.0220902723
C  C216  1  0.52070000  0.68980000  0.27670000  0.5 -0.0220902723
C  C217  1  0.25970000  0.99510000  0.43920000  0.5 0.1377209111
C  C218  1  0.00490000  0.25970000  0.43920000  0.5 0.1377209111
C  C219  1  0.74030000  0.00490000  0.43920000  0.5 0.1377209111
C  C220  1  0.99510000  0.74030000  0.43920000  0.5 0.1377209111
C  C221  1  0.74030000  0.99510000  0.43920000  0.5 0.1377209111
C  C222  1  0.25970000  0.00490000  0.43920000  0.5 0.1377209111
C  C223  1  0.00490000  0.74030000  0.43920000  0.5 0.1377209111
C  C224  1  0.99510000  0.25970000  0.43920000  0.5 0.1377209111
C  C225  1  0.75970000  0.49510000  0.93920000  0.5 0.1377209111
C  C226  1  0.50490000  0.75970000  0.93920000  0.5 0.1377209111
C  C227  1  0.24030000  0.50490000  0.93920000  0.5 0.1377209111
C  C228  1  0.49510000  0.24030000  0.93920000  0.5 0.1377209111
C  C229  1  0.24030000  0.49510000  0.93920000  0.5 0.1377209111
C  C230  1  0.75970000  0.50490000  0.93920000  0.5 0.1377209111
C  C231  1  0.50490000  0.24030000  0.93920000  0.5 0.1377209111
C  C232  1  0.49510000  0.75970000  0.93920000  0.5 0.1377209111
C  C233  1  0.26300000  0.97530000  0.31910000  0.5 -0.0388322097
C  C234  1  0.02470000  0.26300000  0.31910000  0.5 -0.0388322097
C  C235  1  0.73700000  0.02470000  0.31910000  0.5 -0.0388322097
C  C236  1  0.97530000  0.73700000  0.31910000  0.5 -0.0388322097
C  C237  1  0.73700000  0.97530000  0.31910000  0.5 -0.0388322097
C  C238  1  0.26300000  0.02470000  0.31910000  0.5 -0.0388322097
C  C239  1  0.02470000  0.73700000  0.31910000  0.5 -0.0388322097
C  C240  1  0.97530000  0.26300000  0.31910000  0.5 -0.0388322097
C  C241  1  0.76300000  0.47530000  0.81910000  0.5 -0.0388322097
C  C242  1  0.52470000  0.76300000  0.81910000  0.5 -0.0388322097
C  C243  1  0.23700000  0.52470000  0.81910000  0.5 -0.0388322097
C  C244  1  0.47530000  0.23700000  0.81910000  0.5 -0.0388322097
C  C245  1  0.23700000  0.47530000  0.81910000  0.5 -0.0388322097
C  C246  1  0.76300000  0.52470000  0.81910000  0.5 -0.0388322097
C  C247  1  0.52470000  0.23700000  0.81910000  0.5 -0.0388322097
C  C248  1  0.47530000  0.76300000  0.81910000  0.5 -0.0388322097
C  C249  1  0.25890000  0.02680000  0.32470000  0.5 -0.0146316385
C  C250  1  0.97320000  0.25890000  0.32470000  0.5 -0.0146316385
C  C251  1  0.74110000  0.97320000  0.32470000  0.5 -0.0146316385
C  C252  1  0.02680000  0.74110000  0.32470000  0.5 -0.0146316385
C  C253  1  0.74110000  0.02680000  0.32470000  0.5 -0.0146316385
C  C254  1  0.25890000  0.97320000  0.32470000  0.5 -0.0146316385
C  C255  1  0.97320000  0.74110000  0.32470000  0.5 -0.0146316385
C  C256  1  0.02680000  0.25890000  0.32470000  0.5 -0.0146316385
C  C257  1  0.75890000  0.52680000  0.82470000  0.5 -0.0146316385
C  C258  1  0.47320000  0.75890000  0.82470000  0.5 -0.0146316385
C  C259  1  0.24110000  0.47320000  0.82470000  0.5 -0.0146316385
C  C260  1  0.52680000  0.24110000  0.82470000  0.5 -0.0146316385
C  C261  1  0.24110000  0.52680000  0.82470000  0.5 -0.0146316385
C  C262  1  0.75890000  0.47320000  0.82470000  0.5 -0.0146316385
C  C263  1  0.47320000  0.24110000  0.82470000  0.5 -0.0146316385
C  C264  1  0.52680000  0.75890000  0.82470000  0.5 -0.0146316385
C  C265  1  0.19210000  0.18430000  0.43190000  0.5 -0.1093275135
C  C266  1  0.81570000  0.19210000  0.43190000  0.5 -0.101587019
C  C267  1  0.80790000  0.81570000  0.43190000  0.5 -0.1093275135
C  C268  1  0.18430000  0.80790000  0.43190000  0.5 -0.1093275135
C  C269  1  0.80790000  0.18430000  0.43190000  0.5 -0.101587019
C  C270  1  0.19210000  0.81570000  0.43190000  0.5 -0.1093275135
C  C271  1  0.81570000  0.80790000  0.43190000  0.5 -0.1093275135
C  C272  1  0.18430000  0.19210000  0.43190000  0.5 -0.1093275135
C  C273  1  0.69210000  0.68430000  0.93190000  0.5 -0.101587019
C  C274  1  0.31570000  0.69210000  0.93190000  0.5 -0.1093275135
C  C275  1  0.30790000  0.31570000  0.93190000  0.5 -0.101587019
C  C276  1  0.68430000  0.30790000  0.93190000  0.5 -0.101587019
C  C277  1  0.30790000  0.68430000  0.93190000  0.5 -0.1093275135
C  C278  1  0.69210000  0.31570000  0.93190000  0.5 -0.101587019
C  C279  1  0.31570000  0.30790000  0.93190000  0.5 -0.101587019
C  C280  1  0.68430000  0.69210000  0.93190000  0.5 -0.101587019
C  C281  1  0.14950000  0.18790000  0.32550000  0.5 -0.0582977615
C  C282  1  0.81210000  0.14950000  0.32550000  0.5 -0.0582977615
C  C283  1  0.85050000  0.81210000  0.32550000  0.5 -0.0582977615
C  C284  1  0.18790000  0.85050000  0.32550000  0.5 -0.0582977615
C  C285  1  0.85050000  0.18790000  0.32550000  0.5 -0.0582977615
C  C286  1  0.14950000  0.81210000  0.32550000  0.5 -0.0582977615
C  C287  1  0.81210000  0.85050000  0.32550000  0.5 -0.0582977615
C  C288  1  0.18790000  0.14950000  0.32550000  0.5 -0.0582977615
C  C289  1  0.64950000  0.68790000  0.82550000  0.5 -0.0582977615
C  C290  1  0.31210000  0.64950000  0.82550000  0.5 -0.0582977615
C  C291  1  0.35050000  0.31210000  0.82550000  0.5 -0.0582977615
C  C292  1  0.68790000  0.35050000  0.82550000  0.5 -0.0582977615
C  C293  1  0.35050000  0.68790000  0.82550000  0.5 -0.0582977615
C  C294  1  0.64950000  0.31210000  0.82550000  0.5 -0.0582977615
C  C295  1  0.31210000  0.35050000  0.82550000  0.5 -0.0582977615
C  C296  1  0.68790000  0.64950000  0.82550000  0.5 -0.0582977615
C  C297  1  0.17880000  0.14510000  0.32430000  0.5 -0.101587019
C  C298  1  0.85490000  0.17880000  0.32430000  0.5 -0.101587019
C  C299  1  0.82120000  0.85490000  0.32430000  0.5 -0.101587019
C  C300  1  0.14510000  0.82120000  0.32430000  0.5 -0.101587019
C  C301  1  0.82120000  0.14510000  0.32430000  0.5 -0.101587019
C  C302  1  0.17880000  0.85490000  0.32430000  0.5 -0.101587019
C  C303  1  0.85490000  0.82120000  0.32430000  0.5 -0.101587019
C  C304  1  0.14510000  0.17880000  0.32430000  0.5 -0.101587019
C  C305  1  0.67880000  0.64510000  0.82430000  0.5 -0.101587019
C  C306  1  0.35490000  0.67880000  0.82430000  0.5 -0.101587019
C  C307  1  0.32120000  0.35490000  0.82430000  0.5 -0.101587019
C  C308  1  0.64510000  0.32120000  0.82430000  0.5 -0.101587019
C  C309  1  0.32120000  0.64510000  0.82430000  0.5 -0.101587019
C  C310  1  0.67880000  0.35490000  0.82430000  0.5 -0.101587019
C  C311  1  0.35490000  0.32120000  0.82430000  0.5 -0.101587019
C  C312  1  0.64510000  0.67880000  0.82430000  0.5 -0.101587019
N  N1  1  0.31930000  0.12810000  0.80470000  1.0 -0.3038317056
N  N2  1  0.87190000  0.31930000  0.80470000  1.0 -0.3038317056
N  N3  1  0.68070000  0.87190000  0.80470000  1.0 -0.3038317056
N  N4  1  0.12810000  0.68070000  0.80470000  1.0 -0.3038317056
N  N5  1  0.68070000  0.12810000  0.80470000  1.0 -0.3038317056
N  N6  1  0.31930000  0.87190000  0.80470000  1.0 -0.3038317056
N  N7  1  0.87190000  0.68070000  0.80470000  1.0 -0.3038317056
N  N8  1  0.12810000  0.31930000  0.80470000  1.0 -0.3038317056
N  N9  1  0.81930000  0.62810000  0.30470000  1.0 -0.3038317056
N  N10  1  0.37190000  0.81930000  0.30470000  1.0 -0.3038317056
N  N11  1  0.18070000  0.37190000  0.30470000  1.0 -0.3038317056
N  N12  1  0.62810000  0.18070000  0.30470000  1.0 -0.3038317056
N  N13  1  0.18070000  0.62810000  0.30470000  1.0 -0.3038317056
N  N14  1  0.81930000  0.37190000  0.30470000  1.0 -0.3038317056
N  N15  1  0.37190000  0.18070000  0.30470000  1.0 -0.3038317056
N  N16  1  0.62810000  0.81930000  0.30470000  1.0 -0.3038317056
N  N17  1  0.37040000  0.17690000  0.86710000  1.0 -0.3863799532
N  N18  1  0.82310000  0.37040000  0.86710000  1.0 -0.3863799532
N  N19  1  0.62960000  0.82310000  0.86710000  1.0 -0.3863799532
N  N20  1  0.17690000  0.62960000  0.86710000  1.0 -0.3863799532
N  N21  1  0.62960000  0.17690000  0.86710000  1.0 -0.3863799532
N  N22  1  0.37040000  0.82310000  0.86710000  1.0 -0.3863799532
N  N23  1  0.82310000  0.62960000  0.86710000  1.0 -0.3863799532
N  N24  1  0.17690000  0.37040000  0.86710000  1.0 -0.3863799532
N  N25  1  0.87040000  0.67690000  0.36710000  1.0 -0.3863799532
N  N26  1  0.32310000  0.87040000  0.36710000  1.0 -0.3863799532
N  N27  1  0.12960000  0.32310000  0.36710000  1.0 -0.3863799532
N  N28  1  0.67690000  0.12960000  0.36710000  1.0 -0.3863799532
N  N29  1  0.12960000  0.67690000  0.36710000  1.0 -0.3863799532
N  N30  1  0.87040000  0.32310000  0.36710000  1.0 -0.3863799532
N  N31  1  0.32310000  0.12960000  0.36710000  1.0 -0.3863799532
N  N32  1  0.67690000  0.87040000  0.36710000  1.0 -0.3863799532
N  N97  1  0.20507000  0.14923000  0.77920000  1.0 -0.2479952012
N  N98  1  0.85077000  0.20507000  0.77920000  1.0 -0.2479952012
N  N99  1  0.79493000  0.85077000  0.77920000  1.0 -0.2479952012
N  N100  1  0.14923000  0.79493000  0.77920000  1.0 -0.2479952012
N  N101  1  0.79493000  0.14923000  0.77920000  1.0 -0.2479952012
N  N102  1  0.20507000  0.85077000  0.77920000  1.0 -0.2479952012
N  N103  1  0.85077000  0.79493000  0.77920000  1.0 -0.2479952012
N  N104  1  0.14923000  0.20507000  0.77920000  1.0 -0.2479952012
N  N105  1  0.70507000  0.64923000  0.27920000  1.0 -0.2479952012
N  N106  1  0.35077000  0.70507000  0.27920000  1.0 -0.2479952012
N  N107  1  0.29493000  0.35077000  0.27920000  1.0 -0.2479952012
N  N108  1  0.64923000  0.29493000  0.27920000  1.0 -0.2479952012
N  N109  1  0.29493000  0.64923000  0.27920000  1.0 -0.2479952012
N  N110  1  0.70507000  0.35077000  0.27920000  1.0 -0.2479952012
N  N111  1  0.35077000  0.29493000  0.27920000  1.0 -0.2479952012
N  N112  1  0.64923000  0.70507000  0.27920000  1.0 -0.2479952012
N  N33  1  0.28020000  0.12510000  0.63340000  0.5 -0.1808586817
N  N34  1  0.87490000  0.28020000  0.63340000  0.5 -0.1808586817
N  N35  1  0.71980000  0.87490000  0.63340000  0.5 -0.1808586817
N  N36  1  0.12510000  0.71980000  0.63340000  0.5 -0.1808586817
N  N37  1  0.71980000  0.12510000  0.63340000  0.5 -0.1808586817
N  N38  1  0.28020000  0.87490000  0.63340000  0.5 -0.1808586817
N  N39  1  0.87490000  0.71980000  0.63340000  0.5 -0.1808586817
N  N40  1  0.12510000  0.28020000  0.63340000  0.5 -0.1808586817
N  N41  1  0.78020000  0.62510000  0.13340000  0.5 -0.1808586817
N  N42  1  0.37490000  0.78020000  0.13340000  0.5 -0.1808586817
N  N43  1  0.21980000  0.37490000  0.13340000  0.5 -0.1808586817
N  N44  1  0.62510000  0.21980000  0.13340000  0.5 -0.1808586817
N  N45  1  0.21980000  0.62510000  0.13340000  0.5 -0.1808586817
N  N46  1  0.78020000  0.37490000  0.13340000  0.5 -0.1808586817
N  N47  1  0.37490000  0.21980000  0.13340000  0.5 -0.1808586817
N  N48  1  0.62510000  0.78020000  0.13340000  0.5 -0.1808586817
N  N49  1  0.28150000  0.12330000  0.50980000  0.5 -0.1960592677
N  N50  1  0.87670000  0.28150000  0.50980000  0.5 -0.1960592677
N  N51  1  0.71850000  0.87670000  0.50980000  0.5 -0.1960592677
N  N52  1  0.12330000  0.71850000  0.50980000  0.5 -0.1960592677
N  N53  1  0.71850000  0.12330000  0.50980000  0.5 -0.1960592677
N  N54  1  0.28150000  0.87670000  0.50980000  0.5 -0.1960592677
N  N55  1  0.87670000  0.71850000  0.50980000  0.5 -0.1960592677
N  N56  1  0.12330000  0.28150000  0.50980000  0.5 -0.1960592677
N  N57  1  0.78150000  0.62330000  0.00980000  0.5 -0.1960592677
N  N58  1  0.37670000  0.78150000  0.00980000  0.5 -0.1960592677
N  N59  1  0.21850000  0.37670000  0.00980000  0.5 -0.1960592677
N  N60  1  0.62330000  0.21850000  0.00980000  0.5 -0.1960592677
N  N61  1  0.21850000  0.62330000  0.00980000  0.5 -0.1960592677
N  N62  1  0.78150000  0.37670000  0.00980000  0.5 -0.1960592677
N  N63  1  0.37670000  0.21850000  0.00980000  0.5 -0.1960592677
N  N64  1  0.62330000  0.78150000  0.00980000  0.5 -0.1960592677
N  N65  1  0.28170000  0.12110000  0.65180000  0.5 -0.2313145648
N  N66  1  0.87890000  0.28170000  0.65180000  0.5 -0.2313145648
N  N67  1  0.71830000  0.87890000  0.65180000  0.5 -0.2313145648
N  N68  1  0.12110000  0.71830000  0.65180000  0.5 -0.2313145648
N  N69  1  0.71830000  0.12110000  0.65180000  0.5 -0.2313145648
N  N70  1  0.28170000  0.87890000  0.65180000  0.5 -0.2313145648
N  N71  1  0.87890000  0.71830000  0.65180000  0.5 -0.2313145648
N  N72  1  0.12110000  0.28170000  0.65180000  0.5 -0.2313145648
N  N73  1  0.78170000  0.62110000  0.15180000  0.5 -0.2313145648
N  N74  1  0.37890000  0.78170000  0.15180000  0.5 -0.2313145648
N  N75  1  0.21830000  0.37890000  0.15180000  0.5 -0.2313145648
N  N76  1  0.62110000  0.21830000  0.15180000  0.5 -0.2313145648
N  N77  1  0.21830000  0.62110000  0.15180000  0.5 -0.2313145648
N  N78  1  0.78170000  0.37890000  0.15180000  0.5 -0.2313145648
N  N79  1  0.37890000  0.21830000  0.15180000  0.5 -0.2313145648
N  N80  1  0.62110000  0.78170000  0.15180000  0.5 -0.2313145648
N  N81  1  0.28390000  0.12820000  0.52860000  0.5 -0.1808586817
N  N82  1  0.87180000  0.28390000  0.52860000  0.5 -0.1808586817
N  N83  1  0.71610000  0.87180000  0.52860000  0.5 -0.1808586817
N  N84  1  0.12820000  0.71610000  0.52860000  0.5 -0.1808586817
N  N85  1  0.71610000  0.12820000  0.52860000  0.5 -0.1808586817
N  N86  1  0.28390000  0.87180000  0.52860000  0.5 -0.1808586817
N  N87  1  0.87180000  0.71610000  0.52860000  0.5 -0.1808586817
N  N88  1  0.12820000  0.28390000  0.52860000  0.5 -0.1808586817
N  N89  1  0.78390000  0.62820000  0.02860000  0.5 -0.1808586817
N  N90  1  0.37180000  0.78390000  0.02860000  0.5 -0.1808586817
N  N91  1  0.21610000  0.37180000  0.02860000  0.5 -0.1808586817
N  N92  1  0.62820000  0.21610000  0.02860000  0.5 -0.1808586817
N  N93  1  0.21610000  0.62820000  0.02860000  0.5 -0.1808586817
N  N94  1  0.78390000  0.37180000  0.02860000  0.5 -0.1808586817
N  N95  1  0.37180000  0.21610000  0.02860000  0.5 -0.1808586817
N  N96  1  0.62820000  0.78390000  0.02860000  0.5 -0.1808586817
N  N113  1  0.23670000  0.04090000  0.76360000  0.5 -0.0698807966
N  N114  1  0.95910000  0.23670000  0.76360000  0.5 -0.0813739547
N  N115  1  0.76330000  0.95910000  0.76360000  0.5 -0.0698807966
N  N116  1  0.04090000  0.76330000  0.76360000  0.5 -0.0698807966
N  N117  1  0.76330000  0.04090000  0.76360000  0.5 -0.0698807966
N  N118  1  0.23670000  0.95910000  0.76360000  0.5 -0.0698807966
N  N119  1  0.95910000  0.76330000  0.76360000  0.5 -0.0698807966
N  N120  1  0.04090000  0.23670000  0.76360000  0.5 -0.0698807966
N  N121  1  0.73670000  0.54090000  0.26360000  0.5 -0.0813739547
N  N122  1  0.45910000  0.73670000  0.26360000  0.5 -0.0698807966
N  N123  1  0.26330000  0.45910000  0.26360000  0.5 -0.0698807966
N  N124  1  0.54090000  0.26330000  0.26360000  0.5 -0.0698807966
N  N125  1  0.26330000  0.54090000  0.26360000  0.5 -0.0698807966
N  N126  1  0.73670000  0.45910000  0.26360000  0.5 -0.0813739547
N  N127  1  0.45910000  0.26330000  0.26360000  0.5 -0.0698807966
N  N128  1  0.54090000  0.73670000  0.26360000  0.5 -0.0698807966
N  N129  1  0.24050000  0.95850000  0.74050000  0.5 -0.130727683
N  N130  1  0.04150000  0.24050000  0.74050000  0.5 -0.130727683
N  N131  1  0.75950000  0.04150000  0.74050000  0.5 -0.130727683
N  N132  1  0.95850000  0.75950000  0.74050000  0.5 -0.130727683
N  N133  1  0.75950000  0.95850000  0.74050000  0.5 -0.130727683
N  N134  1  0.24050000  0.04150000  0.74050000  0.5 -0.130727683
N  N135  1  0.04150000  0.75950000  0.74050000  0.5 -0.130727683
N  N136  1  0.95850000  0.24050000  0.74050000  0.5 -0.130727683
N  N137  1  0.74050000  0.45850000  0.24050000  0.5 -0.130727683
N  N138  1  0.54150000  0.74050000  0.24050000  0.5 -0.130727683
N  N139  1  0.25950000  0.54150000  0.24050000  0.5 -0.130727683
N  N140  1  0.45850000  0.25950000  0.24050000  0.5 -0.130727683
N  N141  1  0.25950000  0.45850000  0.24050000  0.5 -0.130727683
N  N142  1  0.74050000  0.54150000  0.24050000  0.5 -0.130727683
N  N143  1  0.54150000  0.25950000  0.24050000  0.5 -0.130727683
N  N144  1  0.45850000  0.74050000  0.24050000  0.5 -0.130727683
N  N145  1  0.25690000  0.03910000  0.39890000  0.5 -0.2118638714
N  N146  1  0.96090000  0.25690000  0.39890000  0.5 -0.2118638714
N  N147  1  0.74310000  0.96090000  0.39890000  0.5 -0.2118638714
N  N148  1  0.03910000  0.74310000  0.39890000  0.5 -0.2118638714
N  N149  1  0.74310000  0.03910000  0.39890000  0.5 -0.2118638714
N  N150  1  0.25690000  0.96090000  0.39890000  0.5 -0.2118638714
N  N151  1  0.96090000  0.74310000  0.39890000  0.5 -0.2118638714
N  N152  1  0.03910000  0.25690000  0.39890000  0.5 -0.2118638714
N  N153  1  0.75690000  0.53910000  0.89890000  0.5 -0.2118638714
N  N154  1  0.46090000  0.75690000  0.89890000  0.5 -0.2118638714
N  N155  1  0.24310000  0.46090000  0.89890000  0.5 -0.2118638714
N  N156  1  0.53910000  0.24310000  0.89890000  0.5 -0.2118638714
N  N157  1  0.24310000  0.53910000  0.89890000  0.5 -0.2118638714
N  N158  1  0.75690000  0.46090000  0.89890000  0.5 -0.2118638714
N  N159  1  0.46090000  0.24310000  0.89890000  0.5 -0.2118638714
N  N160  1  0.53910000  0.75690000  0.89890000  0.5 -0.2118638714
N  N161  1  0.26350000  0.95560000  0.38980000  0.5 -0.2367587962
N  N162  1  0.04440000  0.26350000  0.38980000  0.5 -0.2367587962
N  N163  1  0.73650000  0.04440000  0.38980000  0.5 -0.2367587962
N  N164  1  0.95560000  0.73650000  0.38980000  0.5 -0.2367587962
N  N165  1  0.73650000  0.95560000  0.38980000  0.5 -0.2367587962
N  N166  1  0.26350000  0.04440000  0.38980000  0.5 -0.2367587962
N  N167  1  0.04440000  0.73650000  0.38980000  0.5 -0.2367587962
N  N168  1  0.95560000  0.26350000  0.38980000  0.5 -0.2367587962
N  N169  1  0.76350000  0.45560000  0.88980000  0.5 -0.2367587962
N  N170  1  0.54440000  0.76350000  0.88980000  0.5 -0.2367587962
N  N171  1  0.23650000  0.54440000  0.88980000  0.5 -0.2367587962
N  N172  1  0.45560000  0.23650000  0.88980000  0.5 -0.2367587962
N  N173  1  0.23650000  0.45560000  0.88980000  0.5 -0.2367587962
N  N174  1  0.76350000  0.54440000  0.88980000  0.5 -0.2367587962
N  N175  1  0.54440000  0.23650000  0.88980000  0.5 -0.2367587962
N  N176  1  0.45560000  0.76350000  0.88980000  0.5 -0.2367587962
N  N177  1  0.20510000  0.14290000  0.39010000  0.5 -0.0813739547
N  N178  1  0.85710000  0.20510000  0.39010000  0.5 -0.0813739547
N  N179  1  0.79490000  0.85710000  0.39010000  0.5 -0.0813739547
N  N180  1  0.14290000  0.79490000  0.39010000  0.5 -0.0813739547
N  N181  1  0.79490000  0.14290000  0.39010000  0.5 -0.0813739547
N  N182  1  0.20510000  0.85710000  0.39010000  0.5 -0.0813739547
N  N183  1  0.85710000  0.79490000  0.39010000  0.5 -0.0813739547
N  N184  1  0.14290000  0.20510000  0.39010000  0.5 -0.0813739547
N  N185  1  0.70510000  0.64290000  0.89010000  0.5 -0.0813739547
N  N186  1  0.35710000  0.70510000  0.89010000  0.5 -0.0813739547
N  N187  1  0.29490000  0.35710000  0.89010000  0.5 -0.0813739547
N  N188  1  0.64290000  0.29490000  0.89010000  0.5 -0.0813739547
N  N189  1  0.29490000  0.64290000  0.89010000  0.5 -0.0813739547
N  N190  1  0.70510000  0.35710000  0.89010000  0.5 -0.0813739547
N  N191  1  0.35710000  0.29490000  0.89010000  0.5 -0.0813739547
N  N192  1  0.64290000  0.70510000  0.89010000  0.5 -0.0813739547
N  N193  1  0.15770000  0.21210000  0.39200000  0.5 0.0121117616
N  N194  1  0.78790000  0.15770000  0.39200000  0.5 0.0121117616
N  N195  1  0.84230000  0.78790000  0.39200000  0.5 0.0121117616
N  N196  1  0.21210000  0.84230000  0.39200000  0.5 0.0121117616
N  N197  1  0.84230000  0.21210000  0.39200000  0.5 0.0121117616
N  N198  1  0.15770000  0.78790000  0.39200000  0.5 0.0121117616
N  N199  1  0.78790000  0.84230000  0.39200000  0.5 0.0121117616
N  N200  1  0.21210000  0.15770000  0.39200000  0.5 0.0121117616
N  N201  1  0.65770000  0.71210000  0.89200000  0.5 0.0121117616
N  N202  1  0.28790000  0.65770000  0.89200000  0.5 0.0121117616
N  N203  1  0.34230000  0.28790000  0.89200000  0.5 0.0121117616
N  N204  1  0.71210000  0.34230000  0.89200000  0.5 0.0121117616
N  N205  1  0.34230000  0.71210000  0.89200000  0.5 0.0121117616
N  N206  1  0.65770000  0.28790000  0.89200000  0.5 0.0121117616
N  N207  1  0.28790000  0.34230000  0.89200000  0.5 0.0121117616
N  N208  1  0.71210000  0.65770000  0.89200000  0.5 0.0121117616
