# DDEC6 charges by PACMAN v1.1 (https://github.com/mtap-research/PACMAN-charge/)
data_ja9b10501_si_004_ASR_pacman
_symmetry_space_group_name_H-M   'P 1'
_cell_length_a   18.90000000
_cell_length_b   18.90000000
_cell_length_c   36.68200000
_cell_angle_alpha   90.00000000
_cell_angle_beta   90.00000000
_cell_angle_gamma   90.00000000
_symmetry_Int_Tables_number   1
_chemical_formula_structural   Al16H149.44C229.76N17.28O68.48
_chemical_formula_sum   'Al16 H149.44 C229.76 N17.28 O68.48'
_cell_volume   13103.17722000
_cell_formula_units_Z   1
loop_
 _symmetry_equiv_pos_site_id
 _symmetry_equiv_pos_as_xyz
  1  'x, y, z'
loop_
 _atom_site_type_symbol
 _atom_site_label
 _atom_site_symmetry_multiplicity
 _atom_site_fract_x
 _atom_site_fract_y
 _atom_site_fract_z
 _atom_site_occupancy
 _atom_site_charge
Al  Al1  1  0.37342000  0.60103000  0.92013000  1.0 1.4082259112
Al  Al2  1  0.62658000  0.39897000  0.92013000  1.0 1.4082259112
Al  Al3  1  0.89897000  0.87342000  0.42013000  1.0 1.4082259112
Al  Al4  1  0.10103000  0.12658000  0.42013000  1.0 1.4082259112
Al  Al5  1  0.12658000  0.10103000  0.57987000  1.0 1.4082259112
Al  Al6  1  0.87342000  0.89897000  0.57987000  1.0 1.4082259112
Al  Al7  1  0.60103000  0.37342000  0.07987000  1.0 1.4082259112
Al  Al8  1  0.39897000  0.62658000  0.07987000  1.0 1.4082259112
Al  Al9  1  0.33494000  0.66506000  0.00000000  1.0 1.2481196993
Al  Al10  1  0.66506000  0.33494000  0.00000000  1.0 1.2481196993
Al  Al11  1  0.83494000  0.83494000  0.50000000  1.0 1.2481196993
Al  Al12  1  0.16506000  0.16506000  0.50000000  1.0 1.2481196993
Al  Al13  1  0.50000000  0.50000000  0.88807000  1.0 1.6322991126
Al  Al14  1  0.00000000  0.00000000  0.38807000  1.0 1.6322991126
Al  Al15  1  0.00000000  0.00000000  0.61193000  1.0 1.6322991126
Al  Al16  1  0.50000000  0.50000000  0.11193000  1.0 1.6322991126
H  H1  1  0.42986000  0.49592000  0.94335000  1.0 0.410413208
H  H2  1  0.44803000  0.63684000  0.97121000  1.0 0.4219352738
H  H3  1  0.52174000  0.21149000  0.89224000  1.0 0.1197523734
H  H4  1  0.28759000  0.86847000  0.95594000  1.0 0.1197523734
H  H5  1  0.24597000  0.10762000  0.67398000  1.0 0.1273046947
H  H6  1  0.29705000  0.15224000  0.79117000  1.0 0.1018123509
H  H7  1  0.36794000  0.34380000  0.85564000  1.0 0.1273046947
H  H8  1  0.45550000  0.11440000  0.87198000  1.0 0.1018123509
H  H9  1  0.29030000  0.85716000  0.82868000  1.0 0.1018123509
H  H10  1  0.29690000  0.75400000  0.86306000  1.0 0.1197523734
H  H11  1  0.22405000  0.95407000  0.80911000  1.0 0.1018123509
H  H12  1  0.34930000  0.04859000  0.88333000  1.0 0.1074295505
H  H13  1  0.28147000  0.97184000  0.92260000  1.0 0.1018123509
H  H14  1  0.29992000  0.10735000  0.73033000  1.0 0.1018123509
H  H15  1  0.30614000  0.24681000  0.83309000  1.0 0.1018123509
H  H16  1  0.08145000  0.99485000  0.71504000  1.0 0.1197523734
H  H17  1  0.13449000  0.99643000  0.77236000  1.0 0.1018123509
H  H18  1  0.57014000  0.50408000  0.94335000  1.0 0.410413208
H  H19  1  0.55197000  0.36316000  0.97121000  1.0 0.4219352738
H  H20  1  0.47826000  0.78851000  0.89224000  1.0 0.1197523734
H  H21  1  0.71241000  0.13153000  0.95594000  1.0 0.1197523734
H  H22  1  0.75403000  0.89238000  0.67398000  1.0 0.1273046947
H  H23  1  0.70295000  0.84776000  0.79117000  1.0 0.1018123509
H  H24  1  0.63206000  0.65620000  0.85564000  1.0 0.1273046947
H  H25  1  0.54450000  0.88560000  0.87198000  1.0 0.1018123509
H  H26  1  0.70970000  0.14284000  0.82868000  1.0 0.1018123509
H  H27  1  0.70310000  0.24600000  0.86306000  1.0 0.1197523734
H  H28  1  0.77595000  0.04593000  0.80911000  1.0 0.1018123509
H  H29  1  0.65070000  0.95141000  0.88333000  1.0 0.1074295505
H  H30  1  0.71853000  0.02816000  0.92260000  1.0 0.1018123509
H  H31  1  0.70008000  0.89265000  0.73033000  1.0 0.1018123509
H  H32  1  0.69386000  0.75319000  0.83309000  1.0 0.1018123509
H  H33  1  0.91855000  0.00515000  0.71504000  1.0 0.1197523734
H  H34  1  0.86551000  0.00357000  0.77236000  1.0 0.1018123509
H  H35  1  0.00408000  0.92986000  0.44335000  1.0 0.410413208
H  H36  1  0.86316000  0.94803000  0.47121000  1.0 0.4219352738
H  H37  1  0.28851000  0.02174000  0.39224000  1.0 0.1197523734
H  H38  1  0.63153000  0.78759000  0.45594000  1.0 0.1273046947
H  H39  1  0.39238000  0.74597000  0.17398000  1.0 0.1273046947
H  H40  1  0.34776000  0.79705000  0.29117000  1.0 0.1018123509
H  H41  1  0.15620000  0.86794000  0.35564000  1.0 0.1273046947
H  H42  1  0.38560000  0.95550000  0.37198000  1.0 0.1018123509
H  H43  1  0.64284000  0.79030000  0.32868000  1.0 0.1018123509
H  H44  1  0.74600000  0.79690000  0.36306000  1.0 0.1197523734
H  H45  1  0.54593000  0.72405000  0.30911000  1.0 0.1018123509
H  H46  1  0.45141000  0.84930000  0.38333000  1.0 0.1074295505
H  H47  1  0.52816000  0.78147000  0.42260000  1.0 0.1018123509
H  H48  1  0.39265000  0.79992000  0.23033000  1.0 0.1018123509
H  H49  1  0.25319000  0.80614000  0.33309000  1.0 0.1018123509
H  H50  1  0.50515000  0.58145000  0.21504000  1.0 0.1197523734
H  H51  1  0.50357000  0.63449000  0.27236000  1.0 0.1018123509
H  H52  1  0.99592000  0.07014000  0.44335000  1.0 0.410413208
H  H53  1  0.13684000  0.05197000  0.47121000  1.0 0.4219352738
H  H54  1  0.71149000  0.97826000  0.39224000  1.0 0.1197523734
H  H55  1  0.36847000  0.21241000  0.45594000  1.0 0.1273046947
H  H56  1  0.60762000  0.25403000  0.17398000  1.0 0.1273046947
H  H57  1  0.65224000  0.20295000  0.29117000  1.0 0.1018123509
H  H58  1  0.84380000  0.13206000  0.35564000  1.0 0.1273046947
H  H59  1  0.61440000  0.04450000  0.37198000  1.0 0.1018123509
H  H60  1  0.35716000  0.20970000  0.32868000  1.0 0.1018123509
H  H61  1  0.25400000  0.20310000  0.36306000  1.0 0.1197523734
H  H62  1  0.45407000  0.27595000  0.30911000  1.0 0.1018123509
H  H63  1  0.54859000  0.15070000  0.38333000  1.0 0.1074295505
H  H64  1  0.47184000  0.21853000  0.42260000  1.0 0.1018123509
H  H65  1  0.60735000  0.20008000  0.23033000  1.0 0.1018123509
H  H66  1  0.74681000  0.19386000  0.33309000  1.0 0.1018123509
H  H67  1  0.49485000  0.41855000  0.21504000  1.0 0.1197523734
H  H68  1  0.49643000  0.36551000  0.27236000  1.0 0.1018123509
H  H69  1  0.07014000  0.99592000  0.55665000  1.0 0.410413208
H  H70  1  0.05197000  0.13684000  0.52879000  1.0 0.4219352738
H  H71  1  0.97826000  0.71149000  0.60776000  1.0 0.1197523734
H  H72  1  0.21241000  0.36847000  0.54406000  1.0 0.1197523734
H  H73  1  0.25403000  0.60762000  0.82602000  1.0 0.1273046947
H  H74  1  0.20295000  0.65224000  0.70883000  1.0 0.1018123509
H  H75  1  0.13206000  0.84380000  0.64436000  1.0 0.1273046947
H  H76  1  0.04450000  0.61440000  0.62802000  1.0 0.1018123509
H  H77  1  0.20970000  0.35716000  0.67132000  1.0 0.1018123509
H  H78  1  0.20310000  0.25400000  0.63694000  1.0 0.1197523734
H  H79  1  0.27595000  0.45407000  0.69089000  1.0 0.1018123509
H  H80  1  0.15070000  0.54859000  0.61667000  1.0 0.1074295505
H  H81  1  0.21853000  0.47184000  0.57740000  1.0 0.1018123509
H  H82  1  0.20008000  0.60735000  0.76967000  1.0 0.1018123509
H  H83  1  0.19386000  0.74681000  0.66691000  1.0 0.1018123509
H  H84  1  0.41855000  0.49485000  0.78496000  1.0 0.1197523734
H  H85  1  0.36551000  0.49643000  0.72764000  1.0 0.1018123509
H  H86  1  0.92986000  0.00408000  0.55665000  1.0 0.410413208
H  H87  1  0.94803000  0.86316000  0.52879000  1.0 0.4219352738
H  H88  1  0.02174000  0.28851000  0.60776000  1.0 0.1197523734
H  H89  1  0.78759000  0.63153000  0.54406000  1.0 0.1197523734
H  H90  1  0.74597000  0.39238000  0.82602000  1.0 0.1273046947
H  H91  1  0.79705000  0.34776000  0.70883000  1.0 0.1018123509
H  H92  1  0.86794000  0.15620000  0.64436000  1.0 0.1273046947
H  H93  1  0.95550000  0.38560000  0.62802000  1.0 0.1018123509
H  H94  1  0.79030000  0.64284000  0.67132000  1.0 0.1018123509
H  H95  1  0.79690000  0.74600000  0.63694000  1.0 0.1197523734
H  H96  1  0.72405000  0.54593000  0.69089000  1.0 0.1018123509
H  H97  1  0.84930000  0.45141000  0.61667000  1.0 0.1074295505
H  H98  1  0.78147000  0.52816000  0.57740000  1.0 0.1018123509
H  H99  1  0.79992000  0.39265000  0.76967000  1.0 0.1018123509
H  H100  1  0.80614000  0.25319000  0.66691000  1.0 0.1018123509
H  H101  1  0.58145000  0.50515000  0.78496000  1.0 0.1197523734
H  H102  1  0.63449000  0.50357000  0.72764000  1.0 0.1018123509
H  H103  1  0.49592000  0.42986000  0.05665000  1.0 0.410413208
H  H104  1  0.63684000  0.44803000  0.02879000  1.0 0.4219352738
H  H105  1  0.21149000  0.52174000  0.10776000  1.0 0.1197523734
H  H106  1  0.86847000  0.28759000  0.04406000  1.0 0.1273046947
H  H107  1  0.10762000  0.24597000  0.32602000  1.0 0.1273046947
H  H108  1  0.15224000  0.29705000  0.20883000  1.0 0.1018123509
H  H109  1  0.34380000  0.36794000  0.14436000  1.0 0.1273046947
H  H110  1  0.11440000  0.45550000  0.12802000  1.0 0.1018123509
H  H111  1  0.85716000  0.29030000  0.17132000  1.0 0.1018123509
H  H112  1  0.75400000  0.29690000  0.13694000  1.0 0.1197523734
H  H113  1  0.95407000  0.22405000  0.19089000  1.0 0.1018123509
H  H114  1  0.04859000  0.34930000  0.11667000  1.0 0.1074295505
H  H115  1  0.97184000  0.28147000  0.07740000  1.0 0.1018123509
H  H116  1  0.10735000  0.29992000  0.26967000  1.0 0.1018123509
H  H117  1  0.24681000  0.30614000  0.16691000  1.0 0.1018123509
H  H118  1  0.99485000  0.08145000  0.28496000  1.0 0.1197523734
H  H119  1  0.99643000  0.13449000  0.22764000  1.0 0.1018123509
H  H120  1  0.50408000  0.57014000  0.05665000  1.0 0.410413208
H  H121  1  0.36316000  0.55197000  0.02879000  1.0 0.4219352738
H  H122  1  0.78851000  0.47826000  0.10776000  1.0 0.1197523734
H  H123  1  0.13153000  0.71241000  0.04406000  1.0 0.1273046947
H  H124  1  0.89238000  0.75403000  0.32602000  1.0 0.1273046947
H  H125  1  0.84776000  0.70295000  0.20883000  1.0 0.1018123509
H  H126  1  0.65620000  0.63206000  0.14436000  1.0 0.1273046947
H  H127  1  0.88560000  0.54450000  0.12802000  1.0 0.1018123509
H  H128  1  0.14284000  0.70970000  0.17132000  1.0 0.1018123509
H  H129  1  0.24600000  0.70310000  0.13694000  1.0 0.1197523734
H  H130  1  0.04593000  0.77595000  0.19089000  1.0 0.1018123509
H  H131  1  0.95141000  0.65070000  0.11667000  1.0 0.1074295505
H  H132  1  0.02816000  0.71853000  0.07740000  1.0 0.1018123509
H  H133  1  0.89265000  0.70008000  0.26967000  1.0 0.1018123509
H  H134  1  0.75319000  0.69386000  0.16691000  1.0 0.1018123509
H  H135  1  0.00515000  0.91855000  0.28496000  1.0 0.1197523734
H  H136  1  0.00357000  0.86551000  0.22764000  1.0 0.1018123509
H  H137  1  0.24876000  0.47945000  0.91690000  0.04 0.1712367148
H  H138  1  0.75124000  0.52055000  0.91690000  0.04 0.1712367148
H  H139  1  0.02055000  0.74876000  0.41690000  0.04 0.1712367148
H  H140  1  0.97945000  0.25124000  0.41690000  0.04 0.1712367148
H  H141  1  0.25124000  0.97945000  0.58310000  0.04 0.1712367148
H  H142  1  0.74876000  0.02055000  0.58310000  0.04 0.1712367148
H  H143  1  0.47945000  0.24876000  0.08310000  0.04 0.1712367148
H  H144  1  0.52055000  0.75124000  0.08310000  0.04 0.1712367148
H  H145  1  0.22345000  0.50785000  0.97204000  0.28 0.1367181116
H  H146  1  0.77655000  0.49215000  0.97204000  0.28 0.1367181116
H  H147  1  0.99215000  0.72345000  0.47204000  0.28 0.1367181116
H  H148  1  0.00785000  0.27655000  0.47204000  0.28 0.1367181116
H  H149  1  0.27655000  0.00785000  0.52796000  0.28 0.1367181116
H  H150  1  0.72345000  0.99215000  0.52796000  0.28 0.1367181116
H  H151  1  0.50785000  0.22345000  0.02796000  0.28 0.1367181116
H  H152  1  0.49215000  0.77655000  0.02796000  0.28 0.1367181116
H  H153  1  0.15460000  0.47952000  0.96581000  0.68 0.1197523734
H  H154  1  0.18509000  0.57423000  0.00984000  0.68 0.1273046947
H  H155  1  0.84540000  0.52048000  0.96581000  0.68 0.1197523734
H  H156  1  0.81491000  0.42577000  0.00984000  0.68 0.1273046947
H  H157  1  0.02048000  0.65460000  0.46581000  0.68 0.1197523734
H  H158  1  0.92577000  0.68509000  0.50984000  0.68 0.1273046947
H  H159  1  0.97952000  0.34540000  0.46581000  0.68 0.1197523734
H  H160  1  0.07423000  0.31491000  0.50984000  0.68 0.1273046947
H  H161  1  0.34540000  0.97952000  0.53419000  0.68 0.1197523734
H  H162  1  0.31491000  0.07423000  0.49016000  0.68 0.1273046947
H  H163  1  0.65460000  0.02048000  0.53419000  0.68 0.1197523734
H  H164  1  0.68509000  0.92577000  0.49016000  0.68 0.1273046947
H  H165  1  0.47952000  0.15460000  0.03419000  0.68 0.1197523734
H  H166  1  0.57423000  0.18509000  0.99016000  0.68 0.1273046947
H  H167  1  0.52048000  0.84540000  0.03419000  0.68 0.1197523734
H  H168  1  0.42577000  0.81491000  0.99016000  0.68 0.1273046947
C  C1  1  0.30357000  0.73488000  0.93319000  1.0 0.5626973831
C  C2  1  0.49436000  0.34963000  0.88651000  1.0 0.6033762419
C  C3  1  0.29273000  0.80077000  0.91223000  1.0 -0.0298697196
C  C4  1  0.12505000  0.04852000  0.65216000  1.0 0.6033762419
C  C5  1  0.47784000  0.21893000  0.88023000  1.0 -0.1100711809
C  C6  1  0.15950000  0.04958000  0.68846000  1.0 -0.0507022857
C  C7  1  0.45343000  0.28669000  0.87465000  1.0 -0.0418065392
C  C8  1  0.28825000  0.86660000  0.93006000  1.0 -0.1204066179
C  C9  1  0.22117000  0.05329000  0.75768000  1.0 0.0694952027
C  C10  1  0.22378000  0.08431000  0.69387000  1.0 -0.1100711809
C  C11  1  0.25786000  0.05292000  0.79350000  1.0 0.0694952027
C  C12  1  0.29494000  0.11095000  0.80590000  1.0 -0.2125492061
C  C13  1  0.37483000  0.17048000  0.85131000  1.0 0.0607655248
C  C14  1  0.38676000  0.29744000  0.85812000  1.0 -0.1100711809
C  C15  1  0.43806000  0.16098000  0.86824000  1.0 -0.1603931131
C  C16  1  0.28627000  0.92595000  0.87156000  1.0 0.0607655248
C  C17  1  0.29013000  0.85993000  0.85454000  1.0 -0.1603931131
C  C18  1  0.29371000  0.79843000  0.87506000  1.0 -0.1026685491
C  C19  1  0.28795000  0.99100000  0.84962000  1.0 0.0694952027
C  C20  1  0.25232000  0.99315000  0.81641000  1.0 -0.2125492061
C  C21  1  0.32536000  0.04968000  0.86057000  1.0 -0.2125492061
C  C22  1  0.28484000  0.92770000  0.91033000  1.0 -0.1603931131
C  C23  1  0.25515000  0.08525000  0.72732000  1.0 -0.1603931131
C  C24  1  0.34952000  0.23982000  0.84567000  1.0 -0.1603931131
C  C25  1  0.12583000  0.01759000  0.71826000  1.0 -0.1100711809
C  C26  1  0.15712000  0.01907000  0.75239000  1.0 -0.1603931131
C  C27  1  0.32928000  0.11058000  0.83937000  1.0 0.0752529451
C  C28  1  0.69643000  0.26512000  0.93319000  1.0 0.5626973831
C  C29  1  0.50564000  0.65037000  0.88651000  1.0 0.6033762419
C  C30  1  0.70727000  0.19923000  0.91223000  1.0 -0.0298697196
C  C31  1  0.87495000  0.95148000  0.65216000  1.0 0.6033762419
C  C32  1  0.52216000  0.78107000  0.88023000  1.0 -0.1100711809
C  C33  1  0.84050000  0.95042000  0.68846000  1.0 -0.0507022857
C  C34  1  0.54657000  0.71331000  0.87465000  1.0 -0.0418065392
C  C35  1  0.71175000  0.13340000  0.93006000  1.0 -0.1204066179
C  C36  1  0.77883000  0.94671000  0.75768000  1.0 0.0694952027
C  C37  1  0.77622000  0.91569000  0.69387000  1.0 -0.1100711809
C  C38  1  0.74214000  0.94708000  0.79350000  1.0 0.0694952027
C  C39  1  0.70506000  0.88905000  0.80590000  1.0 -0.2125492061
C  C40  1  0.62517000  0.82952000  0.85131000  1.0 0.0607655248
C  C41  1  0.61324000  0.70256000  0.85812000  1.0 -0.1100711809
C  C42  1  0.56194000  0.83902000  0.86824000  1.0 -0.1603931131
C  C43  1  0.71373000  0.07405000  0.87156000  1.0 0.0607655248
C  C44  1  0.70987000  0.14007000  0.85454000  1.0 -0.1603931131
C  C45  1  0.70629000  0.20157000  0.87506000  1.0 -0.1026685491
C  C46  1  0.71205000  0.00900000  0.84962000  1.0 0.0694952027
C  C47  1  0.74768000  0.00685000  0.81641000  1.0 -0.2125492061
C  C48  1  0.67464000  0.95032000  0.86057000  1.0 -0.2125492061
C  C49  1  0.71516000  0.07230000  0.91033000  1.0 -0.1603931131
C  C50  1  0.74485000  0.91475000  0.72732000  1.0 -0.1603931131
C  C51  1  0.65048000  0.76018000  0.84567000  1.0 -0.1603931131
C  C52  1  0.87417000  0.98241000  0.71826000  1.0 -0.1100711809
C  C53  1  0.84288000  0.98093000  0.75239000  1.0 -0.1603931131
C  C54  1  0.67072000  0.88942000  0.83937000  1.0 0.0752529451
C  C55  1  0.76512000  0.80357000  0.43319000  1.0 0.5626973831
C  C56  1  0.15037000  0.99436000  0.38651000  1.0 0.6033762419
C  C57  1  0.69923000  0.79273000  0.41223000  1.0 -0.0298697196
C  C58  1  0.45148000  0.62505000  0.15216000  1.0 0.6033762419
C  C59  1  0.28107000  0.97784000  0.38023000  1.0 -0.1100711809
C  C60  1  0.45042000  0.65950000  0.18846000  1.0 -0.0507022857
C  C61  1  0.21331000  0.95343000  0.37465000  1.0 -0.0418065392
C  C62  1  0.63340000  0.78825000  0.43006000  1.0 -0.1204066179
C  C63  1  0.44671000  0.72117000  0.25768000  1.0 0.0694952027
C  C64  1  0.41569000  0.72378000  0.19387000  1.0 -0.1100711809
C  C65  1  0.44708000  0.75786000  0.29350000  1.0 0.0694952027
C  C66  1  0.38905000  0.79494000  0.30590000  1.0 -0.2125492061
C  C67  1  0.32952000  0.87483000  0.35131000  1.0 0.0607655248
C  C68  1  0.20256000  0.88676000  0.35812000  1.0 -0.1100711809
C  C69  1  0.33902000  0.93806000  0.36824000  1.0 -0.1603931131
C  C70  1  0.57405000  0.78627000  0.37156000  1.0 0.0607655248
C  C71  1  0.64007000  0.79013000  0.35454000  1.0 -0.1603931131
C  C72  1  0.70157000  0.79371000  0.37506000  1.0 -0.1026685491
C  C73  1  0.50900000  0.78795000  0.34962000  1.0 0.0694952027
C  C74  1  0.50685000  0.75232000  0.31641000  1.0 -0.2125492061
C  C75  1  0.45032000  0.82536000  0.36057000  1.0 -0.2125492061
C  C76  1  0.57230000  0.78484000  0.41033000  1.0 -0.1603931131
C  C77  1  0.41475000  0.75515000  0.22732000  1.0 -0.1603931131
C  C78  1  0.26018000  0.84952000  0.34567000  1.0 -0.1603931131
C  C79  1  0.48241000  0.62583000  0.21826000  1.0 -0.1100711809
C  C80  1  0.48093000  0.65712000  0.25239000  1.0 -0.1603931131
C  C81  1  0.38942000  0.82928000  0.33937000  1.0 0.0752529451
C  C82  1  0.23488000  0.19643000  0.43319000  1.0 0.5626973831
C  C83  1  0.84963000  0.00564000  0.38651000  1.0 0.6033762419
C  C84  1  0.30077000  0.20727000  0.41223000  1.0 -0.0298697196
C  C85  1  0.54852000  0.37495000  0.15216000  1.0 0.6033762419
C  C86  1  0.71893000  0.02216000  0.38023000  1.0 -0.1100711809
C  C87  1  0.54958000  0.34050000  0.18846000  1.0 -0.0507022857
C  C88  1  0.78669000  0.04657000  0.37465000  1.0 -0.0418065392
C  C89  1  0.36660000  0.21175000  0.43006000  1.0 -0.1204066179
C  C90  1  0.55329000  0.27883000  0.25768000  1.0 0.0694952027
C  C91  1  0.58431000  0.27622000  0.19387000  1.0 -0.1100711809
C  C92  1  0.55292000  0.24214000  0.29350000  1.0 0.0694952027
C  C93  1  0.61095000  0.20506000  0.30590000  1.0 -0.2125492061
C  C94  1  0.67048000  0.12517000  0.35131000  1.0 0.0607655248
C  C95  1  0.79744000  0.11324000  0.35812000  1.0 -0.1100711809
C  C96  1  0.66098000  0.06194000  0.36824000  1.0 -0.1603931131
C  C97  1  0.42595000  0.21373000  0.37156000  1.0 0.0607655248
C  C98  1  0.35993000  0.20987000  0.35454000  1.0 -0.1603931131
C  C99  1  0.29843000  0.20629000  0.37506000  1.0 -0.1026685491
C  C100  1  0.49100000  0.21205000  0.34962000  1.0 0.0694952027
C  C101  1  0.49315000  0.24768000  0.31641000  1.0 -0.2125492061
C  C102  1  0.54968000  0.17464000  0.36057000  1.0 -0.2125492061
C  C103  1  0.42770000  0.21516000  0.41033000  1.0 -0.1603931131
C  C104  1  0.58525000  0.24485000  0.22732000  1.0 -0.1603931131
C  C105  1  0.73982000  0.15048000  0.34567000  1.0 -0.1603931131
C  C106  1  0.51759000  0.37417000  0.21826000  1.0 -0.1100711809
C  C107  1  0.51907000  0.34288000  0.25239000  1.0 -0.1603931131
C  C108  1  0.61058000  0.17072000  0.33937000  1.0 0.0752529451
C  C109  1  0.19643000  0.23488000  0.56681000  1.0 0.5626973831
C  C110  1  0.00564000  0.84963000  0.61349000  1.0 0.6033762419
C  C111  1  0.20727000  0.30077000  0.58777000  1.0 -0.0298697196
C  C112  1  0.37495000  0.54852000  0.84784000  1.0 0.6033762419
C  C113  1  0.02216000  0.71893000  0.61977000  1.0 -0.1100711809
C  C114  1  0.34050000  0.54958000  0.81154000  1.0 -0.0507022857
C  C115  1  0.04657000  0.78669000  0.62535000  1.0 -0.0418065392
C  C116  1  0.21175000  0.36660000  0.56994000  1.0 -0.1204066179
C  C117  1  0.27883000  0.55329000  0.74232000  1.0 0.0694952027
C  C118  1  0.27622000  0.58431000  0.80613000  1.0 -0.1100711809
C  C119  1  0.24214000  0.55292000  0.70650000  1.0 0.0694952027
C  C120  1  0.20506000  0.61095000  0.69410000  1.0 -0.2125492061
C  C121  1  0.12517000  0.67048000  0.64869000  1.0 0.0607655248
C  C122  1  0.11324000  0.79744000  0.64188000  1.0 -0.1100711809
C  C123  1  0.06194000  0.66098000  0.63176000  1.0 -0.1603931131
C  C124  1  0.21373000  0.42595000  0.62844000  1.0 0.0607655248
C  C125  1  0.20987000  0.35993000  0.64546000  1.0 -0.1603931131
C  C126  1  0.20629000  0.29843000  0.62494000  1.0 -0.1026685491
C  C127  1  0.21205000  0.49100000  0.65038000  1.0 0.0694952027
C  C128  1  0.24768000  0.49315000  0.68359000  1.0 -0.2125492061
C  C129  1  0.17464000  0.54968000  0.63943000  1.0 -0.2125492061
C  C130  1  0.21516000  0.42770000  0.58967000  1.0 -0.1603931131
C  C131  1  0.24485000  0.58525000  0.77268000  1.0 -0.1603931131
C  C132  1  0.15048000  0.73982000  0.65433000  1.0 -0.1603931131
C  C133  1  0.37417000  0.51759000  0.78174000  1.0 -0.1100711809
C  C134  1  0.34288000  0.51907000  0.74761000  1.0 -0.1603931131
C  C135  1  0.17072000  0.61058000  0.66063000  1.0 0.0752529451
C  C136  1  0.80357000  0.76512000  0.56681000  1.0 0.5626973831
C  C137  1  0.99436000  0.15037000  0.61349000  1.0 0.6033762419
C  C138  1  0.79273000  0.69923000  0.58777000  1.0 -0.0298697196
C  C139  1  0.62505000  0.45148000  0.84784000  1.0 0.6033762419
C  C140  1  0.97784000  0.28107000  0.61977000  1.0 -0.1100711809
C  C141  1  0.65950000  0.45042000  0.81154000  1.0 -0.0507022857
C  C142  1  0.95343000  0.21331000  0.62535000  1.0 -0.0418065392
C  C143  1  0.78825000  0.63340000  0.56994000  1.0 -0.1204066179
C  C144  1  0.72117000  0.44671000  0.74232000  1.0 0.0694952027
C  C145  1  0.72378000  0.41569000  0.80613000  1.0 -0.1100711809
C  C146  1  0.75786000  0.44708000  0.70650000  1.0 0.0694952027
C  C147  1  0.79494000  0.38905000  0.69410000  1.0 -0.2125492061
C  C148  1  0.87483000  0.32952000  0.64869000  1.0 0.0607655248
C  C149  1  0.88676000  0.20256000  0.64188000  1.0 -0.1100711809
C  C150  1  0.93806000  0.33902000  0.63176000  1.0 -0.1603931131
C  C151  1  0.78627000  0.57405000  0.62844000  1.0 0.0607655248
C  C152  1  0.79013000  0.64007000  0.64546000  1.0 -0.1603931131
C  C153  1  0.79371000  0.70157000  0.62494000  1.0 -0.1026685491
C  C154  1  0.78795000  0.50900000  0.65038000  1.0 0.0694952027
C  C155  1  0.75232000  0.50685000  0.68359000  1.0 -0.2125492061
C  C156  1  0.82536000  0.45032000  0.63943000  1.0 -0.2125492061
C  C157  1  0.78484000  0.57230000  0.58967000  1.0 -0.1603931131
C  C158  1  0.75515000  0.41475000  0.77268000  1.0 -0.1603931131
C  C159  1  0.84952000  0.26018000  0.65433000  1.0 -0.1603931131
C  C160  1  0.62583000  0.48241000  0.78174000  1.0 -0.1100711809
C  C161  1  0.65712000  0.48093000  0.74761000  1.0 -0.1603931131
C  C162  1  0.82928000  0.38942000  0.66063000  1.0 0.0752529451
C  C163  1  0.73488000  0.30357000  0.06681000  1.0 0.5626973831
C  C164  1  0.34963000  0.49436000  0.11349000  1.0 0.6033762419
C  C165  1  0.80077000  0.29273000  0.08777000  1.0 -0.0298697196
C  C166  1  0.04852000  0.12505000  0.34784000  1.0 0.6033762419
C  C167  1  0.21893000  0.47784000  0.11977000  1.0 -0.1100711809
C  C168  1  0.04958000  0.15950000  0.31154000  1.0 -0.0507022857
C  C169  1  0.28669000  0.45343000  0.12535000  1.0 -0.0418065392
C  C170  1  0.86660000  0.28825000  0.06994000  1.0 -0.1204066179
C  C171  1  0.05329000  0.22117000  0.24232000  1.0 0.0694952027
C  C172  1  0.08431000  0.22378000  0.30613000  1.0 -0.1100711809
C  C173  1  0.05292000  0.25786000  0.20650000  1.0 0.0694952027
C  C174  1  0.11095000  0.29494000  0.19410000  1.0 -0.2125492061
C  C175  1  0.17048000  0.37483000  0.14869000  1.0 0.0607655248
C  C176  1  0.29744000  0.38676000  0.14188000  1.0 -0.1100711809
C  C177  1  0.16098000  0.43806000  0.13176000  1.0 -0.1603931131
C  C178  1  0.92595000  0.28627000  0.12844000  1.0 0.0607655248
C  C179  1  0.85993000  0.29013000  0.14546000  1.0 -0.1603931131
C  C180  1  0.79843000  0.29371000  0.12494000  1.0 -0.1026685491
C  C181  1  0.99100000  0.28795000  0.15038000  1.0 0.0694952027
C  C182  1  0.99315000  0.25232000  0.18359000  1.0 -0.2125492061
C  C183  1  0.04968000  0.32536000  0.13943000  1.0 -0.2125492061
C  C184  1  0.92770000  0.28484000  0.08967000  1.0 -0.1603931131
C  C185  1  0.08525000  0.25515000  0.27268000  1.0 -0.1603931131
C  C186  1  0.23982000  0.34952000  0.15433000  1.0 -0.1603931131
C  C187  1  0.01759000  0.12583000  0.28174000  1.0 -0.1100711809
C  C188  1  0.01907000  0.15712000  0.24761000  1.0 -0.1603931131
C  C189  1  0.11058000  0.32928000  0.16063000  1.0 0.0694952027
C  C190  1  0.26512000  0.69643000  0.06681000  1.0 0.5626973831
C  C191  1  0.65037000  0.50564000  0.11349000  1.0 0.6033762419
C  C192  1  0.19923000  0.70727000  0.08777000  1.0 -0.0298697196
C  C193  1  0.95148000  0.87495000  0.34784000  1.0 0.6033762419
C  C194  1  0.78107000  0.52216000  0.11977000  1.0 -0.1100711809
C  C195  1  0.95042000  0.84050000  0.31154000  1.0 -0.0507022857
C  C196  1  0.71331000  0.54657000  0.12535000  1.0 -0.0418065392
C  C197  1  0.13340000  0.71175000  0.06994000  1.0 -0.1204066179
C  C198  1  0.94671000  0.77883000  0.24232000  1.0 0.0694952027
C  C199  1  0.91569000  0.77622000  0.30613000  1.0 -0.1100711809
C  C200  1  0.94708000  0.74214000  0.20650000  1.0 0.0694952027
C  C201  1  0.88905000  0.70506000  0.19410000  1.0 -0.2125492061
C  C202  1  0.82952000  0.62517000  0.14869000  1.0 0.0607655248
C  C203  1  0.70256000  0.61324000  0.14188000  1.0 -0.1100711809
C  C204  1  0.83902000  0.56194000  0.13176000  1.0 -0.1603931131
C  C205  1  0.07405000  0.71373000  0.12844000  1.0 0.0607655248
C  C206  1  0.14007000  0.70987000  0.14546000  1.0 -0.1603931131
C  C207  1  0.20157000  0.70629000  0.12494000  1.0 -0.1026685491
C  C208  1  0.00900000  0.71205000  0.15038000  1.0 0.0694952027
C  C209  1  0.00685000  0.74768000  0.18359000  1.0 -0.2125492061
C  C210  1  0.95032000  0.67464000  0.13943000  1.0 -0.2125492061
C  C211  1  0.07230000  0.71516000  0.08967000  1.0 -0.1603931131
C  C212  1  0.91475000  0.74485000  0.27268000  1.0 -0.1603931131
C  C213  1  0.76018000  0.65048000  0.15433000  1.0 -0.1603931131
C  C214  1  0.98241000  0.87417000  0.28174000  1.0 -0.1100711809
C  C215  1  0.98093000  0.84288000  0.24761000  1.0 -0.1603931131
C  C216  1  0.88942000  0.67072000  0.16063000  1.0 0.0752529451
C  C217  1  0.25290000  0.54600000  0.96472000  0.28 0.0694952027
C  C218  1  0.74710000  0.45400000  0.96472000  0.28 0.0694952027
C  C219  1  0.95400000  0.75290000  0.46472000  0.28 0.0694952027
C  C220  1  0.04600000  0.24710000  0.46472000  0.28 0.0694952027
C  C221  1  0.24710000  0.04600000  0.53528000  0.28 0.0694952027
C  C222  1  0.75290000  0.95400000  0.53528000  0.28 0.0752529451
C  C223  1  0.54600000  0.25290000  0.03528000  0.28 0.0694952027
C  C224  1  0.45400000  0.74710000  0.03528000  0.28 0.0694952027
C  C225  1  0.19461000  0.50985000  0.96462000  0.72 -0.1603931131
C  C226  1  0.21158000  0.56179000  0.98878000  0.72 -0.0507022857
C  C227  1  0.80539000  0.49015000  0.96462000  0.72 -0.1603931131
C  C228  1  0.78842000  0.43821000  0.98878000  0.72 -0.0507022857
C  C229  1  0.99015000  0.69461000  0.46462000  0.72 -0.1603931131
C  C230  1  0.93821000  0.71158000  0.48878000  0.72 -0.0418065392
C  C231  1  0.00985000  0.30539000  0.46462000  0.72 -0.1603931131
C  C232  1  0.06179000  0.28842000  0.48878000  0.72 -0.0418065392
C  C233  1  0.30539000  0.00985000  0.53538000  0.72 -0.1603931131
C  C234  1  0.28842000  0.06179000  0.51122000  0.72 -0.0507022857
C  C235  1  0.69461000  0.99015000  0.53538000  0.72 -0.1603931131
C  C236  1  0.71158000  0.93821000  0.51122000  0.72 -0.0507022857
C  C237  1  0.50985000  0.19461000  0.03538000  0.72 -0.1603931131
C  C238  1  0.56179000  0.21158000  0.01122000  0.72 -0.0418065392
C  C239  1  0.49015000  0.80539000  0.03538000  0.72 -0.1603931131
C  C240  1  0.43821000  0.78842000  0.01122000  0.72 -0.0418065392
N  N1  1  0.24702000  0.50941000  0.93768000  0.72 -0.1374081024
N  N2  1  0.27111000  0.59200000  0.97804000  0.72 -0.0507022857
N  N3  1  0.29307000  0.55795000  0.94650000  0.72 -0.0191262266
N  N4  1  0.75298000  0.49059000  0.93768000  0.72 -0.1374081024
N  N5  1  0.72889000  0.40800000  0.97804000  0.72 -0.0507022857
N  N6  1  0.70693000  0.44205000  0.94650000  0.72 -0.0191262266
N  N7  1  0.99059000  0.74702000  0.43768000  0.72 -0.1374081024
N  N8  1  0.90800000  0.77111000  0.47804000  0.72 -0.0507022857
N  N9  1  0.94205000  0.79307000  0.44650000  0.72 -0.0191262266
N  N10  1  0.00941000  0.25298000  0.43768000  0.72 -0.1374081024
N  N11  1  0.09200000  0.22889000  0.47804000  0.72 -0.0507022857
N  N12  1  0.05795000  0.20693000  0.44650000  0.72 -0.0191262266
N  N13  1  0.25298000  0.00941000  0.56232000  0.72 -0.1374081024
N  N14  1  0.22889000  0.09200000  0.52196000  0.72 -0.0507022857
N  N15  1  0.20693000  0.05795000  0.55350000  0.72 -0.0191262266
N  N16  1  0.74702000  0.99059000  0.56232000  0.72 -0.1374081024
N  N17  1  0.77111000  0.90800000  0.52196000  0.72 -0.0507022857
N  N18  1  0.79307000  0.94205000  0.55350000  0.72 -0.0191262266
N  N19  1  0.50941000  0.24702000  0.06232000  0.72 -0.1374081024
N  N20  1  0.59200000  0.27111000  0.02196000  0.72 -0.0507022857
N  N21  1  0.55795000  0.29307000  0.05350000  0.72 -0.0191262266
N  N22  1  0.49059000  0.75298000  0.06232000  0.72 -0.1374081024
N  N23  1  0.40800000  0.72889000  0.02196000  0.72 -0.0507022857
N  N24  1  0.44205000  0.70693000  0.05350000  0.72 -0.0191262266
O  O1  1  0.43339000  0.52523000  0.92239000  1.0 -0.9345844684
O  O2  1  0.39909000  0.63485000  0.96539000  1.0 -0.8610667861
O  O3  1  0.31220000  0.67992000  0.91436000  1.0 -0.5590344533
O  O4  1  0.30369000  0.73733000  0.96770000  1.0 -0.5590344533
O  O5  1  0.55642000  0.33999000  0.89701000  1.0 -0.5700565106
O  O6  1  0.46252000  0.40757000  0.88535000  1.0 -0.5785857466
O  O7  1  0.16046000  0.07361000  0.62614000  1.0 -0.5785857466
O  O8  1  0.06377000  0.02421000  0.65045000  1.0 -0.5785857466
O  O9  1  0.56661000  0.47477000  0.92239000  1.0 -0.9345844684
O  O10  1  0.60091000  0.36515000  0.96539000  1.0 -0.8610667861
O  O11  1  0.68780000  0.32008000  0.91436000  1.0 -0.5590344533
O  O12  1  0.69631000  0.26267000  0.96770000  1.0 -0.5590344533
O  O13  1  0.44358000  0.66001000  0.89701000  1.0 -0.5700565106
O  O14  1  0.53748000  0.59243000  0.88535000  1.0 -0.5785857466
O  O15  1  0.83954000  0.92639000  0.62614000  1.0 -0.5785857466
O  O16  1  0.93623000  0.97579000  0.65045000  1.0 -0.5785857466
O  O17  1  0.97477000  0.93339000  0.42239000  1.0 -0.9359257347
O  O18  1  0.86515000  0.89909000  0.46539000  1.0 -0.8610667861
O  O19  1  0.82008000  0.81220000  0.41436000  1.0 -0.5590344533
O  O20  1  0.76267000  0.80369000  0.46770000  1.0 -0.5590344533
O  O21  1  0.16001000  0.05642000  0.39701000  1.0 -0.5700565106
O  O22  1  0.09243000  0.96252000  0.38535000  1.0 -0.5785857466
O  O23  1  0.42639000  0.66046000  0.12614000  1.0 -0.5785857466
O  O24  1  0.47579000  0.56377000  0.15045000  1.0 -0.5785857466
O  O25  1  0.02523000  0.06661000  0.42239000  1.0 -0.9345844684
O  O26  1  0.13485000  0.10091000  0.46539000  1.0 -0.8610667861
O  O27  1  0.17992000  0.18780000  0.41436000  1.0 -0.5590344533
O  O28  1  0.23733000  0.19631000  0.46770000  1.0 -0.5590344533
O  O29  1  0.83999000  0.94358000  0.39701000  1.0 -0.5700565106
O  O30  1  0.90757000  0.03748000  0.38535000  1.0 -0.5785857466
O  O31  1  0.57361000  0.33954000  0.12614000  1.0 -0.5785857466
O  O32  1  0.52421000  0.43623000  0.15045000  1.0 -0.5785857466
O  O33  1  0.06661000  0.02523000  0.57761000  1.0 -0.9345844684
O  O34  1  0.10091000  0.13485000  0.53461000  1.0 -0.8610667861
O  O35  1  0.18780000  0.17992000  0.58564000  1.0 -0.5590344533
O  O36  1  0.19631000  0.23733000  0.53230000  1.0 -0.5590344533
O  O37  1  0.94358000  0.83999000  0.60299000  1.0 -0.5700565106
O  O38  1  0.03748000  0.90757000  0.61465000  1.0 -0.5785857466
O  O39  1  0.33954000  0.57361000  0.87386000  1.0 -0.5785857466
O  O40  1  0.43623000  0.52421000  0.84955000  1.0 -0.5785857466
O  O41  1  0.93339000  0.97477000  0.57761000  1.0 -0.9345844684
O  O42  1  0.89909000  0.86515000  0.53461000  1.0 -0.8610667861
O  O43  1  0.81220000  0.82008000  0.58564000  1.0 -0.5590344533
O  O44  1  0.80369000  0.76267000  0.53230000  1.0 -0.5590344533
O  O45  1  0.05642000  0.16001000  0.60299000  1.0 -0.5700565106
O  O46  1  0.96252000  0.09243000  0.61465000  1.0 -0.5785857466
O  O47  1  0.66046000  0.42639000  0.87386000  1.0 -0.5785857466
O  O48  1  0.56377000  0.47579000  0.84955000  1.0 -0.5785857466
O  O49  1  0.52523000  0.43339000  0.07761000  1.0 -0.9345844684
O  O50  1  0.63485000  0.39909000  0.03461000  1.0 -0.8610667861
O  O51  1  0.67992000  0.31220000  0.08564000  1.0 -0.5590344533
O  O52  1  0.73733000  0.30369000  0.03230000  1.0 -0.5590344533
O  O53  1  0.33999000  0.55642000  0.10299000  1.0 -0.5700565106
O  O54  1  0.40757000  0.46252000  0.11465000  1.0 -0.5785857466
O  O55  1  0.07361000  0.16046000  0.37386000  1.0 -0.5785857466
O  O56  1  0.02421000  0.06377000  0.34955000  1.0 -0.5785857466
O  O57  1  0.47477000  0.56661000  0.07761000  1.0 -0.9345844684
O  O58  1  0.36515000  0.60091000  0.03461000  1.0 -0.8610667861
O  O59  1  0.32008000  0.68780000  0.08564000  1.0 -0.5590344533
O  O60  1  0.26267000  0.69631000  0.03230000  1.0 -0.5590344533
O  O61  1  0.66001000  0.44358000  0.10299000  1.0 -0.5700565106
O  O62  1  0.59243000  0.53748000  0.11465000  1.0 -0.5785857466
O  O63  1  0.92639000  0.83954000  0.37386000  1.0 -0.5785857466
O  O64  1  0.97579000  0.93623000  0.34955000  1.0 -0.5785857466
O  O65  1  0.25210000  0.60440000  0.98594000  0.28 -0.1026685491
O  O66  1  0.29310000  0.53630000  0.93279000  0.28 -0.0298697196
O  O67  1  0.74790000  0.39560000  0.98594000  0.28 -0.1026685491
O  O68  1  0.70690000  0.46370000  0.93279000  0.28 -0.0298697196
O  O69  1  0.89560000  0.75210000  0.48594000  0.28 -0.0931176197
O  O70  1  0.96370000  0.79310000  0.43279000  0.28 -0.0191262266
O  O71  1  0.10440000  0.24790000  0.48594000  0.28 -0.0931176197
O  O72  1  0.03630000  0.20690000  0.43279000  0.28 -0.0191262266
O  O73  1  0.24790000  0.10440000  0.51406000  0.28 -0.0931176197
O  O74  1  0.20690000  0.03630000  0.56721000  0.28 -0.0298697196
O  O75  1  0.75210000  0.89560000  0.51406000  0.28 -0.0931176197
O  O76  1  0.79310000  0.96370000  0.56721000  0.28 -0.0298697196
O  O77  1  0.60440000  0.25210000  0.01406000  0.28 -0.0931176197
O  O78  1  0.53630000  0.29310000  0.06721000  0.28 -0.0191262266
O  O79  1  0.39560000  0.74790000  0.01406000  0.28 -0.0931176197
O  O80  1  0.46370000  0.70690000  0.06721000  0.28 -0.0191262266
