# DDEC6 charges by PACMAN v1.1 (https://github.com/mtap-research/PACMAN-charge/)
data_2017[Al][skl]3[ASR]8
_chemical_formula_sum              "Al16 H168 C272 O80"
_cell_length_a       19.156
_cell_length_b       19.156
_cell_length_c       36.71
_cell_angle_alpha    90
_cell_angle_beta     90
_cell_angle_gamma    90

_symmetry_space_group_name_H-M    "P 1"
_symmetry_Int_Tables_number       1

loop_
  _symmetry_equiv_pos_as_xyz
  'x, y, z'

loop_
  _atom_site_type_symbol
  _atom_site_label
  _atom_site_symmetry_multiplicity
  _atom_site_fract_x
  _atom_site_fract_y
  _atom_site_fract_z
  _atom_site_occupancy
  _atom_site_charge
Al  Al1       1.0  0.66419  0.33581  0.50000  1.0000 1.6474112678
Al  Al2       1.0  0.16419  0.16419  0.00000  1.0000 1.6474112678
Al  Al3       1.0  0.33581  0.66419  0.50000  1.0000 1.6474112678
Al  Al4       1.0  0.83581  0.83581  0.00000  1.0000 1.6474112678
Al  Al5       1.0  0.62056  0.39156  0.41694  1.0000 1.6474112678
Al  Al6       1.0  0.10844  0.12056  0.91694  1.0000 1.6474112678
Al  Al7       1.0  0.37944  0.60844  0.41694  1.0000 1.6474112678
Al  Al8       1.0  0.89156  0.87944  0.91694  1.0000 1.6474112678
Al  Al9       1.0  0.12056  0.10844  0.08306  1.0000 1.6474112678
Al  Al10      1.0  0.87944  0.89156  0.08306  1.0000 1.6474112678
Al  Al11      1.0  0.39156  0.62056  0.58306  1.0000 1.6474112678
Al  Al12      1.0  0.60844  0.37944  0.58306  1.0000 1.6474112678
Al  Al13      1.0  0.50000  0.50000  0.38490  1.0000 1.6474112678
Al  Al14      1.0  0.00000  0.00000  0.88490  1.0000 1.6474112678
Al  Al15      1.0  0.00000  0.00000  0.11510  1.0000 1.6474112678
Al  Al16      1.0  0.50000  0.50000  0.61510  1.0000 1.6474112678
H   H1        1.0  0.57510  0.50340  0.43690  1.0000 0.4239769909
H   H2        1.0  0.99660  0.07510  0.93690  1.0000 0.4239769909
H   H3        1.0  0.42490  0.49660  0.43690  1.0000 0.4239769909
H   H4        1.0  0.00340  0.92490  0.93690  1.0000 0.4239769909
H   H5        1.0  0.07510  0.99660  0.06310  1.0000 0.4239769909
H   H6        1.0  0.92490  0.00340  0.06310  1.0000 0.4239769909
H   H7        1.0  0.50340  0.57510  0.56310  1.0000 0.4239769909
H   H8        1.0  0.49660  0.42490  0.56310  1.0000 0.4239769909
H   H9        1.0  0.55640  0.37070  0.47200  1.0000 0.4239769909
H   H10       1.0  0.12930  0.05640  0.97200  1.0000 0.4239769909
H   H11       1.0  0.44360  0.62930  0.47200  1.0000 0.4239769909
H   H12       1.0  0.87070  0.94360  0.97200  1.0000 0.4239769909
H   H13       1.0  0.05640  0.12930  0.02800  1.0000 0.4239769909
H   H14       1.0  0.94360  0.87070  0.02800  1.0000 0.4239769909
H   H15       1.0  0.37070  0.55640  0.52800  1.0000 0.4239769909
H   H16       1.0  0.62930  0.44360  0.52800  1.0000 0.4239769909
H   H17       1.0  0.77910  0.62960  0.16710  1.0000 0.112306313
H   H18       1.0  0.87040  0.27910  0.66710  1.0000 0.112306313
H   H19       1.0  0.22090  0.37040  0.16710  1.0000 0.112306313
H   H20       1.0  0.12960  0.72090  0.66710  1.0000 0.112306313
H   H21       1.0  0.27910  0.87040  0.33290  1.0000 0.112306313
H   H22       1.0  0.72090  0.12960  0.33290  1.0000 0.112306313
H   H23       1.0  0.62960  0.77910  0.83290  1.0000 0.112306313
H   H24       1.0  0.37040  0.22090  0.83290  1.0000 0.112306313
H   H25       1.0  0.77430  0.63180  0.04260  1.0000 0.1315001764
H   H26       1.0  0.86820  0.27430  0.54260  1.0000 0.1315001764
H   H27       1.0  0.22570  0.36820  0.04260  1.0000 0.1315001764
H   H28       1.0  0.13180  0.72570  0.54260  1.0000 0.1315001764
H   H29       1.0  0.27430  0.86820  0.45740  1.0000 0.1315001764
H   H30       1.0  0.72570  0.13180  0.45740  1.0000 0.1315001764
H   H31       1.0  0.63180  0.77430  0.95740  1.0000 0.1315001764
H   H32       1.0  0.36820  0.22570  0.95740  1.0000 0.1315001764
H   H33       1.0  0.79860  0.73510  0.13680  1.0000 0.1315001764
H   H34       1.0  0.76490  0.29860  0.63680  1.0000 0.1315001764
H   H35       1.0  0.20140  0.26490  0.13680  1.0000 0.1315001764
H   H36       1.0  0.23510  0.70140  0.63680  1.0000 0.1315001764
H   H37       1.0  0.29860  0.76490  0.36320  1.0000 0.1315001764
H   H38       1.0  0.70140  0.23510  0.36320  1.0000 0.1315001764
H   H39       1.0  0.73510  0.79860  0.86320  1.0000 0.1315001764
H   H40       1.0  0.26490  0.20140  0.86320  1.0000 0.1315001764
H   H41       1.0  0.76050  0.53100  0.07290  1.0000 0.112306313
H   H42       1.0  0.96900  0.26050  0.57290  1.0000 0.112306313
H   H43       1.0  0.23950  0.46900  0.07290  1.0000 0.112306313
H   H44       1.0  0.03100  0.73950  0.57290  1.0000 0.112306313
H   H45       1.0  0.26050  0.96900  0.42710  1.0000 0.112306313
H   H46       1.0  0.73950  0.03100  0.42710  1.0000 0.112306313
H   H47       1.0  0.53100  0.76050  0.92710  1.0000 0.112306313
H   H48       1.0  0.46900  0.23950  0.92710  1.0000 0.112306313
H   H49       1.0  0.58090  0.50160  0.28120  1.0000 0.1315001764
H   H50       1.0  0.99840  0.08090  0.78120  1.0000 0.1315001764
H   H51       1.0  0.41910  0.49840  0.28120  1.0000 0.1315001764
H   H52       1.0  0.00160  0.91910  0.78120  1.0000 0.1315001764
H   H53       1.0  0.08090  0.99840  0.21880  1.0000 0.1315001764
H   H54       1.0  0.91910  0.00160  0.21880  1.0000 0.1315001764
H   H55       1.0  0.50160  0.58090  0.71880  1.0000 0.1315001764
H   H56       1.0  0.49840  0.41910  0.71880  1.0000 0.1315001764
H   H57       1.0  0.85680  0.15490  0.14350  1.0000 0.1315001764
H   H58       1.0  0.34510  0.35680  0.64350  1.0000 0.1315001764
H   H59       1.0  0.14320  0.84510  0.14350  1.0000 0.1315001764
H   H60       1.0  0.65490  0.64320  0.64350  1.0000 0.1315001764
H   H61       1.0  0.35680  0.34510  0.35650  1.0000 0.1315001764
H   H62       1.0  0.64320  0.65490  0.35650  1.0000 0.1315001764
H   H63       1.0  0.15490  0.85680  0.85650  1.0000 0.1315001764
H   H64       1.0  0.84510  0.14320  0.85650  1.0000 0.1315001764
H   H65       1.0  0.00100  0.28840  0.10190  1.0000 0.1315001764
H   H66       1.0  0.21160  0.50100  0.60190  1.0000 0.1315001764
H   H67       1.0  0.99900  0.71160  0.10190  1.0000 0.1315001764
H   H68       1.0  0.78840  0.49900  0.60190  1.0000 0.1315001764
H   H69       1.0  0.50100  0.21160  0.39810  1.0000 0.1315001764
H   H70       1.0  0.49900  0.78840  0.39810  1.0000 0.1315001764
H   H71       1.0  0.28840  0.00100  0.89810  1.0000 0.1315001764
H   H72       1.0  0.71160  0.99900  0.89810  1.0000 0.1315001764
H   H73       1.0  0.71990  0.36650  0.31610  1.0000 0.1315001764
H   H74       1.0  0.13350  0.21990  0.81610  1.0000 0.1315001764
H   H75       1.0  0.28010  0.63350  0.31610  1.0000 0.1315001764
H   H76       1.0  0.86650  0.78010  0.81610  1.0000 0.1315001764
H   H77       1.0  0.21990  0.13350  0.18390  1.0000 0.1315001764
H   H78       1.0  0.78010  0.86650  0.18390  1.0000 0.1315001764
H   H79       1.0  0.36650  0.71990  0.68390  1.0000 0.1315001764
H   H80       1.0  0.63350  0.28010  0.68390  1.0000 0.1315001764
H   H81       1.0  0.77200  0.36900  0.25950  1.0000 0.112306313
H   H82       1.0  0.13100  0.27200  0.75950  1.0000 0.112306313
H   H83       1.0  0.22800  0.63100  0.25950  1.0000 0.112306313
H   H84       1.0  0.86900  0.72800  0.75950  1.0000 0.112306313
H   H85       1.0  0.27200  0.13100  0.24050  1.0000 0.112306313
H   H86       1.0  0.72800  0.86900  0.24050  1.0000 0.112306313
H   H87       1.0  0.36900  0.77200  0.74050  1.0000 0.112306313
H   H88       1.0  0.63100  0.22800  0.74050  1.0000 0.112306313
H   H89       1.0  0.62950  0.50920  0.22810  1.0000 0.1172698108
H   H90       1.0  0.99080  0.12950  0.72810  1.0000 0.1172698108
H   H91       1.0  0.37050  0.49080  0.22810  1.0000 0.1172698108
H   H92       1.0  0.00920  0.87050  0.72810  1.0000 0.1172698108
H   H93       1.0  0.12950  0.99080  0.27190  1.0000 0.1172698108
H   H94       1.0  0.87050  0.00920  0.27190  1.0000 0.1172698108
H   H95       1.0  0.50920  0.62950  0.77190  1.0000 0.1172698108
H   H96       1.0  0.49080  0.37050  0.77190  1.0000 0.1172698108
H   H97       1.0  0.72170  0.54060  0.18680  1.0000 0.112306313
H   H98       1.0  0.95940  0.22170  0.68680  1.0000 0.112306313
H   H99       1.0  0.27830  0.45940  0.18680  1.0000 0.112306313
H   H100      1.0  0.04060  0.77830  0.68680  1.0000 0.112306313
H   H101      1.0  0.22170  0.95940  0.31320  1.0000 0.112306313
H   H102      1.0  0.77830  0.04060  0.31320  1.0000 0.112306313
H   H103      1.0  0.54060  0.72170  0.81320  1.0000 0.112306313
H   H104      1.0  0.45940  0.27830  0.81320  1.0000 0.112306313
H   H105      1.0  0.93800  0.37800  0.12180  1.0000 0.112306313
H   H106      1.0  0.12200  0.43800  0.62180  1.0000 0.112306313
H   H107      1.0  0.06200  0.62200  0.12180  1.0000 0.112306313
H   H108      1.0  0.87800  0.56200  0.62180  1.0000 0.112306313
H   H109      1.0  0.43800  0.12200  0.37820  1.0000 0.112306313
H   H110      1.0  0.56200  0.87800  0.37820  1.0000 0.112306313
H   H111      1.0  0.37800  0.93800  0.87820  1.0000 0.112306313
H   H112      1.0  0.62200  0.06200  0.87820  1.0000 0.112306313
H   H113      1.0  0.79470  0.24560  0.16290  1.0000 0.112306313
H   H114      1.0  0.25440  0.29470  0.66290  1.0000 0.112306313
H   H115      1.0  0.20530  0.75440  0.16290  1.0000 0.112306313
H   H116      1.0  0.74560  0.70530  0.66290  1.0000 0.112306313
H   H117      1.0  0.29470  0.25440  0.33710  1.0000 0.112306313
H   H118      1.0  0.70530  0.74560  0.33710  1.0000 0.112306313
H   H119      1.0  0.24560  0.79470  0.83710  1.0000 0.112306313
H   H120      1.0  0.75440  0.20530  0.83710  1.0000 0.112306313
H   H121      1.0  0.82820  0.44590  0.10880  1.0000 0.112306313
H   H122      1.0  0.05410  0.32820  0.60880  1.0000 0.112306313
H   H123      1.0  0.17180  0.55410  0.10880  1.0000 0.112306313
H   H124      1.0  0.94590  0.67180  0.60880  1.0000 0.112306313
H   H125      1.0  0.32820  0.05410  0.39120  1.0000 0.112306313
H   H126      1.0  0.67180  0.94590  0.39120  1.0000 0.112306313
H   H127      1.0  0.44590  0.82820  0.89120  1.0000 0.112306313
H   H128      1.0  0.55410  0.17180  0.89120  1.0000 0.112306313
H   H129      1.0  0.77910  0.34300  0.20240  1.0000 0.112306313
H   H130      1.0  0.15700  0.27910  0.70240  1.0000 0.112306313
H   H131      1.0  0.22090  0.65700  0.20240  1.0000 0.112306313
H   H132      1.0  0.84300  0.72090  0.70240  1.0000 0.112306313
H   H133      1.0  0.27910  0.15700  0.29760  1.0000 0.112306313
H   H134      1.0  0.72090  0.84300  0.29760  1.0000 0.112306313
H   H135      1.0  0.34300  0.77910  0.79760  1.0000 0.112306313
H   H136      1.0  0.65700  0.22090  0.79760  1.0000 0.112306313
H   H137      1.0  0.81890  0.49310  0.40110  1.0000 0.1383947186
H   H138      1.0  0.00690  0.31890  0.90110  1.0000 0.1383947186
H   H139      1.0  0.18110  0.50690  0.40110  1.0000 0.1383947186
H   H140      1.0  0.99310  0.68110  0.90110  1.0000 0.1383947186
H   H141      1.0  0.31890  0.00690  0.09890  1.0000 0.1383947186
H   H142      1.0  0.68110  0.99310  0.09890  1.0000 0.1383947186
H   H143      1.0  0.49310  0.81890  0.59890  1.0000 0.1383947186
H   H144      1.0  0.50690  0.18110  0.59890  1.0000 0.1383947186
H   H145      1.0  0.93690  0.51430  0.39730  1.0000 0.112306313
H   H146      1.0  0.98570  0.43690  0.89730  1.0000 0.112306313
H   H147      1.0  0.06310  0.48570  0.39730  1.0000 0.112306313
H   H148      1.0  0.01430  0.56310  0.89730  1.0000 0.112306313
H   H149      1.0  0.43690  0.98570  0.10270  1.0000 0.112306313
H   H150      1.0  0.56310  0.01430  0.10270  1.0000 0.112306313
H   H151      1.0  0.51430  0.93690  0.60270  1.0000 0.112306313
H   H152      1.0  0.48570  0.06310  0.60270  1.0000 0.112306313
H   H153      1.0  0.85050  0.42510  0.50180  1.0000 0.1315001764
H   H154      1.0  0.07490  0.35050  0.00180  1.0000 0.1315001764
H   H155      1.0  0.14950  0.57490  0.50180  1.0000 0.1315001764
H   H156      1.0  0.92510  0.64950  0.00180  1.0000 0.1315001764
H   H157      1.0  0.35050  0.07490  0.99820  1.0000 0.1315001764
H   H158      1.0  0.64950  0.92510  0.99820  1.0000 0.1315001764
H   H159      1.0  0.42510  0.85050  0.49820  1.0000 0.1315001764
H   H160      1.0  0.57490  0.14950  0.49820  1.0000 0.1315001764
H   H161      1.0  0.96320  0.45750  0.49820  1.0000 0.112306313
H   H162      1.0  0.04250  0.46320  0.99820  1.0000 0.112306313
H   H163      1.0  0.03680  0.54250  0.49820  1.0000 0.112306313
H   H164      1.0  0.95750  0.53680  0.99820  1.0000 0.112306313
H   H165      1.0  0.46320  0.04250  0.00180  1.0000 0.112306313
H   H166      1.0  0.53680  0.95750  0.00180  1.0000 0.112306313
H   H167      1.0  0.45750  0.96320  0.50180  1.0000 0.112306313
H   H168      1.0  0.54250  0.03680  0.50180  1.0000 0.112306313
C   C1        1.0  0.61600  0.44420  0.34194  1.0000 0.627899285
C   C2        1.0  0.05580  0.11600  0.84194  1.0000 0.627899285
C   C3        1.0  0.38400  0.55580  0.34194  1.0000 0.627899285
C   C4        1.0  0.94420  0.88400  0.84194  1.0000 0.627899285
C   C5        1.0  0.11600  0.05580  0.15806  1.0000 0.627899285
C   C6        1.0  0.88400  0.94420  0.15806  1.0000 0.627899285
C   C7        1.0  0.44420  0.61600  0.65806  1.0000 0.627899285
C   C8        1.0  0.55580  0.38400  0.65806  1.0000 0.627899285
C   C9        1.0  0.78010  0.63010  0.14175  1.0000 -0.1500896107
C   C10       1.0  0.86990  0.28010  0.64175  1.0000 -0.1500896107
C   C11       1.0  0.21990  0.36990  0.14175  1.0000 -0.1500896107
C   C12       1.0  0.13010  0.71990  0.64175  1.0000 -0.1500896107
C   C13       1.0  0.28010  0.86990  0.35825  1.0000 -0.1500896107
C   C14       1.0  0.71990  0.13010  0.35825  1.0000 -0.1500896107
C   C15       1.0  0.63010  0.78010  0.85825  1.0000 -0.1500896107
C   C16       1.0  0.36990  0.21990  0.85825  1.0000 -0.1500896107
C   C17       1.0  0.77680  0.63200  0.06793  1.0000 -0.0980418622
C   C18       1.0  0.86800  0.27680  0.56793  1.0000 -0.0980418622
C   C19       1.0  0.22320  0.36800  0.06793  1.0000 -0.0980418622
C   C20       1.0  0.13200  0.72320  0.56793  1.0000 -0.0980418622
C   C21       1.0  0.27680  0.86800  0.43207  1.0000 -0.0980418622
C   C22       1.0  0.72320  0.13200  0.43207  1.0000 -0.0980418622
C   C23       1.0  0.63200  0.77680  0.93207  1.0000 -0.0980418622
C   C24       1.0  0.36800  0.22320  0.93207  1.0000 -0.0980418622
C   C25       1.0  0.98250  0.15267  0.11169  1.0000 0.5950637419
C   C26       1.0  0.34733  0.48250  0.61169  1.0000 0.594516452
C   C27       1.0  0.01750  0.84733  0.11169  1.0000 0.5950637419
C   C28       1.0  0.65267  0.51750  0.61169  1.0000 0.594516452
C   C29       1.0  0.48250  0.34733  0.38831  1.0000 0.5950637419
C   C30       1.0  0.51750  0.65267  0.38831  1.0000 0.5950637419
C   C31       1.0  0.15267  0.98250  0.88831  1.0000 0.5950637419
C   C32       1.0  0.84733  0.01750  0.88831  1.0000 0.5950637419
C   C33       1.0  0.79070  0.69410  0.12386  1.0000 -0.0980418622
C   C34       1.0  0.80590  0.29070  0.62386  1.0000 -0.0980418622
C   C35       1.0  0.20930  0.30590  0.12386  1.0000 -0.0980418622
C   C36       1.0  0.19410  0.70930  0.62386  1.0000 -0.0980418622
C   C37       1.0  0.29070  0.80590  0.37614  1.0000 -0.0980418622
C   C38       1.0  0.70930  0.19410  0.37614  1.0000 -0.0980418622
C   C39       1.0  0.69410  0.79070  0.87614  1.0000 -0.0980418622
C   C40       1.0  0.30590  0.20930  0.87614  1.0000 -0.0980418622
C   C41       1.0  0.76840  0.57180  0.08598  1.0000 -0.1500896107
C   C42       1.0  0.92820  0.26840  0.58598  1.0000 -0.1500896107
C   C43       1.0  0.23160  0.42820  0.08598  1.0000 -0.1500896107
C   C44       1.0  0.07180  0.73160  0.58598  1.0000 -0.1500896107
C   C45       1.0  0.26840  0.92820  0.41402  1.0000 -0.1500896107
C   C46       1.0  0.73160  0.07180  0.41402  1.0000 -0.1500896107
C   C47       1.0  0.57180  0.76840  0.91402  1.0000 -0.1500896107
C   C48       1.0  0.42820  0.23160  0.91402  1.0000 -0.1500896107
C   C49       1.0  0.78890  0.69320  0.08557  1.0000 -0.0325115345
C   C50       1.0  0.80680  0.28890  0.58557  1.0000 -0.0325115345
C   C51       1.0  0.21110  0.30680  0.08557  1.0000 -0.0325115345
C   C52       1.0  0.19320  0.71110  0.58557  1.0000 -0.0325115345
C   C53       1.0  0.28890  0.80680  0.41443  1.0000 -0.0325115345
C   C54       1.0  0.71110  0.19320  0.41443  1.0000 -0.0325115345
C   C55       1.0  0.69320  0.78890  0.91443  1.0000 -0.0325115345
C   C56       1.0  0.30680  0.21110  0.91443  1.0000 -0.0325115345
C   C57       1.0  0.80650  0.76310  0.06742  1.0000 0.6219228987
C   C58       1.0  0.73690  0.30650  0.56742  1.0000 0.6219228987
C   C59       1.0  0.19350  0.23690  0.06742  1.0000 0.6219228987
C   C60       1.0  0.26310  0.69350  0.56742  1.0000 0.6219228987
C   C61       1.0  0.30650  0.73690  0.43258  1.0000 0.6219228987
C   C62       1.0  0.69350  0.26310  0.43258  1.0000 0.6219228987
C   C63       1.0  0.76310  0.80650  0.93258  1.0000 0.6219228987
C   C64       1.0  0.23690  0.19350  0.93258  1.0000 0.6219228987
C   C65       1.0  0.93940  0.20860  0.12249  1.0000 -0.111088993
C   C66       1.0  0.29140  0.43940  0.62249  1.0000 -0.111088993
C   C67       1.0  0.06060  0.79140  0.12249  1.0000 -0.111088993
C   C68       1.0  0.70860  0.56060  0.62249  1.0000 -0.111088993
C   C69       1.0  0.43940  0.29140  0.37751  1.0000 -0.111088993
C   C70       1.0  0.56060  0.70860  0.37751  1.0000 -0.111088993
C   C71       1.0  0.20860  0.93940  0.87751  1.0000 -0.111088993
C   C72       1.0  0.79140  0.06060  0.87751  1.0000 -0.111088993
C   C73       1.0  0.62110  0.47560  0.27692  1.0000 -0.111088993
C   C74       1.0  0.02440  0.12110  0.77692  1.0000 -0.111088993
C   C75       1.0  0.37890  0.52440  0.27692  1.0000 -0.111088993
C   C76       1.0  0.97560  0.87890  0.77692  1.0000 -0.111088993
C   C77       1.0  0.12110  0.02440  0.22308  1.0000 -0.111088993
C   C78       1.0  0.87890  0.97560  0.22308  1.0000 -0.111088993
C   C79       1.0  0.47560  0.62110  0.72308  1.0000 -0.111088993
C   C80       1.0  0.52440  0.37890  0.72308  1.0000 -0.111088993
C   C81       1.0  0.77110  0.56900  0.12355  1.0000 0.0726478886
C   C82       1.0  0.93100  0.27110  0.62355  1.0000 0.0726478886
C   C83       1.0  0.22890  0.43100  0.12355  1.0000 0.0726478886
C   C84       1.0  0.06900  0.72890  0.62355  1.0000 0.0726478886
C   C85       1.0  0.27110  0.93100  0.37645  1.0000 0.0726478886
C   C86       1.0  0.72890  0.06900  0.37645  1.0000 0.0726478886
C   C87       1.0  0.56900  0.77110  0.87645  1.0000 0.0726478886
C   C88       1.0  0.43100  0.22890  0.87645  1.0000 0.0726478886
C   C89       1.0  0.70590  0.43730  0.23565  1.0000 0.0761821285
C   C90       1.0  0.06270  0.20590  0.73565  1.0000 0.0761821285
C   C91       1.0  0.29410  0.56270  0.23565  1.0000 0.0761821285
C   C92       1.0  0.93730  0.79410  0.73565  1.0000 0.0761821285
C   C93       1.0  0.20590  0.06270  0.26435  1.0000 0.0761821285
C   C94       1.0  0.79410  0.93730  0.26435  1.0000 0.0761821285
C   C95       1.0  0.43730  0.70590  0.76435  1.0000 0.0761821285
C   C96       1.0  0.56270  0.29410  0.76435  1.0000 0.0761821285
C   C97       1.0  0.87350  0.19980  0.13937  1.0000 -0.0805632816
C   C98       1.0  0.30020  0.37350  0.63937  1.0000 -0.0805632816
C   C99       1.0  0.12650  0.80020  0.13937  1.0000 -0.0805632816
C   C100      1.0  0.69980  0.62650  0.63937  1.0000 -0.0805632816
C   C101      1.0  0.37350  0.30020  0.36063  1.0000 -0.0805632816
C   C102      1.0  0.62650  0.69980  0.36063  1.0000 -0.0805632816
C   C103      1.0  0.19980  0.87350  0.86063  1.0000 -0.0805632816
C   C104      1.0  0.80020  0.12650  0.86063  1.0000 -0.0805632816
C   C105      1.0  0.73640  0.43790  0.19871  1.0000 0.0761821285
C   C106      1.0  0.06210  0.23640  0.69871  1.0000 0.0761821285
C   C107      1.0  0.26360  0.56210  0.19871  1.0000 0.0761821285
C   C108      1.0  0.93790  0.76360  0.69871  1.0000 0.0761821285
C   C109      1.0  0.23640  0.06210  0.30129  1.0000 0.0761821285
C   C110      1.0  0.76360  0.93790  0.30129  1.0000 0.0761821285
C   C111      1.0  0.43790  0.73640  0.80129  1.0000 0.0761821285
C   C112      1.0  0.56210  0.26360  0.80129  1.0000 0.0761821285
C   C113      1.0  0.64750  0.43600  0.30534  1.0000 -0.0515495435
C   C114      1.0  0.06400  0.14750  0.80534  1.0000 -0.0515495435
C   C115      1.0  0.35250  0.56400  0.30534  1.0000 -0.0515495435
C   C116      1.0  0.93600  0.85250  0.80534  1.0000 -0.0515495435
C   C117      1.0  0.14750  0.06400  0.19466  1.0000 -0.0515495435
C   C118      1.0  0.85250  0.93600  0.19466  1.0000 -0.0515495435
C   C119      1.0  0.43600  0.64750  0.69466  1.0000 -0.0515495435
C   C120      1.0  0.56400  0.35250  0.69466  1.0000 -0.0515495435
C   C121      1.0  0.95970  0.28000  0.11458  1.0000 -0.0805632816
C   C122      1.0  0.22000  0.45970  0.61458  1.0000 -0.0805632816
C   C123      1.0  0.04030  0.72000  0.11458  1.0000 -0.0805632816
C   C124      1.0  0.78000  0.54030  0.61458  1.0000 -0.0805632816
C   C125      1.0  0.45970  0.22000  0.38542  1.0000 -0.0934448472
C   C126      1.0  0.54030  0.78000  0.38542  1.0000 -0.0934448472
C   C127      1.0  0.28000  0.95970  0.88542  1.0000 -0.0805632816
C   C128      1.0  0.72000  0.04030  0.88542  1.0000 -0.0805632816
C   C129      1.0  0.70200  0.39560  0.29810  1.0000 -0.0934448472
C   C130      1.0  0.10440  0.20200  0.79810  1.0000 -0.0980418622
C   C131      1.0  0.29800  0.60440  0.29810  1.0000 -0.0934448472
C   C132      1.0  0.89560  0.79800  0.79810  1.0000 -0.0934448472
C   C133      1.0  0.20200  0.10440  0.20190  1.0000 -0.0934448472
C   C134      1.0  0.79800  0.89560  0.20190  1.0000 -0.0934448472
C   C135      1.0  0.39560  0.70200  0.70190  1.0000 -0.0934448472
C   C136      1.0  0.60440  0.29800  0.70190  1.0000 -0.0934448472
C   C137      1.0  0.73270  0.39640  0.26380  1.0000 -0.1500896107
C   C138      1.0  0.10360  0.23270  0.76380  1.0000 -0.1500896107
C   C139      1.0  0.26730  0.60360  0.26380  1.0000 -0.1500896107
C   C140      1.0  0.89640  0.76730  0.76380  1.0000 -0.1500896107
C   C141      1.0  0.23270  0.10360  0.23620  1.0000 -0.1500896107
C   C142      1.0  0.76730  0.89640  0.23620  1.0000 -0.1500896107
C   C143      1.0  0.39640  0.73270  0.73620  1.0000 -0.1500896107
C   C144      1.0  0.60360  0.26730  0.73620  1.0000 -0.1500896107
C   C145      1.0  0.85130  0.32310  0.14133  1.0000 0.0726478886
C   C146      1.0  0.17690  0.35130  0.64133  1.0000 0.0761821285
C   C147      1.0  0.14870  0.67690  0.14133  1.0000 0.0726478886
C   C148      1.0  0.82310  0.64870  0.64133  1.0000 0.0761821285
C   C149      1.0  0.35130  0.17690  0.35867  1.0000 0.0726478886
C   C150      1.0  0.64870  0.82310  0.35867  1.0000 0.0726478886
C   C151      1.0  0.32310  0.85130  0.85867  1.0000 0.0761821285
C   C152      1.0  0.67690  0.14870  0.85867  1.0000 0.0761821285
C   C153      1.0  0.64830  0.47880  0.24520  1.0000 -0.131005014
C   C154      1.0  0.02120  0.14830  0.74520  1.0000 -0.131005014
C   C155      1.0  0.35170  0.52120  0.24520  1.0000 -0.131005014
C   C156      1.0  0.97880  0.85170  0.74520  1.0000 -0.131005014
C   C157      1.0  0.14830  0.02120  0.25480  1.0000 -0.131005014
C   C158      1.0  0.85170  0.97880  0.25480  1.0000 -0.131005014
C   C159      1.0  0.47880  0.64830  0.75480  1.0000 -0.131005014
C   C160      1.0  0.52120  0.35170  0.75480  1.0000 -0.131005014
C   C161      1.0  0.74120  0.49990  0.17745  1.0000 -0.1936034676
C   C162      1.0  0.00010  0.24120  0.67745  1.0000 -0.1936034676
C   C163      1.0  0.25880  0.50010  0.17745  1.0000 -0.1936034676
C   C164      1.0  0.99990  0.75880  0.67745  1.0000 -0.1936034676
C   C165      1.0  0.24120  0.00010  0.32255  1.0000 -0.1936034676
C   C166      1.0  0.75880  0.99990  0.32255  1.0000 -0.1936034676
C   C167      1.0  0.49990  0.74120  0.82255  1.0000 -0.1936034676
C   C168      1.0  0.50010  0.25880  0.82255  1.0000 -0.1936034676
C   C169      1.0  0.92110  0.33290  0.12491  1.0000 -0.131005014
C   C170      1.0  0.16710  0.42110  0.62491  1.0000 -0.131005014
C   C171      1.0  0.07890  0.66710  0.12491  1.0000 -0.131005014
C   C172      1.0  0.83290  0.57890  0.62491  1.0000 -0.131005014
C   C173      1.0  0.42110  0.16710  0.37509  1.0000 -0.131005014
C   C174      1.0  0.57890  0.83290  0.37509  1.0000 -0.131005014
C   C175      1.0  0.33290  0.92110  0.87509  1.0000 -0.131005014
C   C176      1.0  0.66710  0.07890  0.87509  1.0000 -0.131005014
C   C177      1.0  0.81150  0.38300  0.15300  1.0000 0.0761821285
C   C178      1.0  0.11700  0.31150  0.65300  1.0000 0.0761821285
C   C179      1.0  0.18850  0.61700  0.15300  1.0000 0.0761821285
C   C180      1.0  0.88300  0.68850  0.65300  1.0000 0.0761821285
C   C181      1.0  0.31150  0.11700  0.34700  1.0000 0.0761821285
C   C182      1.0  0.68850  0.88300  0.34700  1.0000 0.0761821285
C   C183      1.0  0.38300  0.81150  0.84700  1.0000 0.0761821285
C   C184      1.0  0.61700  0.18850  0.84700  1.0000 0.0761821285
C   C185      1.0  0.83500  0.25420  0.14949  1.0000 -0.131005014
C   C186      1.0  0.24580  0.33500  0.64949  1.0000 -0.131005014
C   C187      1.0  0.16500  0.74580  0.14949  1.0000 -0.131005014
C   C188      1.0  0.75420  0.66500  0.64949  1.0000 -0.131005014
C   C189      1.0  0.33500  0.24580  0.35051  1.0000 -0.131005014
C   C190      1.0  0.66500  0.75420  0.35051  1.0000 -0.131005014
C   C191      1.0  0.25420  0.83500  0.85051  1.0000 -0.131005014
C   C192      1.0  0.74580  0.16500  0.85051  1.0000 -0.131005014
C   C193      1.0  0.77220  0.50270  0.14473  1.0000 0.0761821285
C   C194      1.0  0.99730  0.27220  0.64473  1.0000 0.0761821285
C   C195      1.0  0.22780  0.49730  0.14473  1.0000 0.0761821285
C   C196      1.0  0.00270  0.72780  0.64473  1.0000 0.0761821285
C   C197      1.0  0.27220  0.99730  0.35527  1.0000 0.0761821285
C   C198      1.0  0.72780  0.00270  0.35527  1.0000 0.0761821285
C   C199      1.0  0.50270  0.77220  0.85527  1.0000 0.0761821285
C   C200      1.0  0.49730  0.22780  0.85527  1.0000 0.0761821285
C   C201      1.0  0.80730  0.44450  0.13169  1.0000 -0.2160097644
C   C202      1.0  0.05550  0.30730  0.63169  1.0000 -0.2160097644
C   C203      1.0  0.19270  0.55550  0.13169  1.0000 -0.2160097644
C   C204      1.0  0.94450  0.69270  0.63169  1.0000 -0.2160097644
C   C205      1.0  0.30730  0.05550  0.36831  1.0000 -0.2160097644
C   C206      1.0  0.69270  0.94450  0.36831  1.0000 -0.2160097644
C   C207      1.0  0.44450  0.80730  0.86831  1.0000 -0.2160097644
C   C208      1.0  0.55550  0.19270  0.86831  1.0000 -0.2160097644
C   C209      1.0  0.77560  0.38210  0.18749  1.0000 -0.2066967919
C   C210      1.0  0.11790  0.27560  0.68749  1.0000 -0.2066967919
C   C211      1.0  0.22440  0.61790  0.18749  1.0000 -0.2066967919
C   C212      1.0  0.88210  0.72440  0.68749  1.0000 -0.2066967919
C   C213      1.0  0.27560  0.11790  0.31251  1.0000 -0.2066967919
C   C214      1.0  0.72440  0.88210  0.31251  1.0000 -0.2066967919
C   C215      1.0  0.38210  0.77560  0.81251  1.0000 -0.2066967919
C   C216      1.0  0.61790  0.22440  0.81251  1.0000 -0.2066967919
C   C217      1.0  0.74975  0.42850  0.45426  1.0000 0.6368200961
C   C218      1.0  0.07150  0.24975  0.95426  1.0000 0.6368200961
C   C219      1.0  0.25025  0.57150  0.45426  1.0000 0.6368200961
C   C220      1.0  0.92850  0.75025  0.95426  1.0000 0.6368200961
C   C221      1.0  0.24975  0.07150  0.04574  1.0000 0.6368200961
C   C222      1.0  0.75025  0.92850  0.04574  1.0000 0.6368200961
C   C223      1.0  0.42850  0.74975  0.54574  1.0000 0.6368200961
C   C224      1.0  0.57150  0.25025  0.54574  1.0000 0.6368200961
C   C225      1.0  0.84820  0.48250  0.42052  1.0000 -0.0934448472
C   C226      1.0  0.01750  0.34820  0.92052  1.0000 -0.0934448472
C   C227      1.0  0.15180  0.51750  0.42052  1.0000 -0.0934448472
C   C228      1.0  0.98250  0.65180  0.92052  1.0000 -0.0934448472
C   C229      1.0  0.34820  0.01750  0.07948  1.0000 -0.0934448472
C   C230      1.0  0.65180  0.98250  0.07948  1.0000 -0.0934448472
C   C231      1.0  0.48250  0.84820  0.57948  1.0000 -0.0934448472
C   C232      1.0  0.51750  0.15180  0.57948  1.0000 -0.0934448472
C   C233      1.0  0.82280  0.45300  0.45094  1.0000 -0.0515495435
C   C234      1.0  0.04700  0.32280  0.95094  1.0000 -0.0515495435
C   C235      1.0  0.17720  0.54700  0.45094  1.0000 -0.0515495435
C   C236      1.0  0.95300  0.67720  0.95094  1.0000 -0.0515495435
C   C237      1.0  0.32280  0.04700  0.04906  1.0000 -0.0515495435
C   C238      1.0  0.67720  0.95300  0.04906  1.0000 -0.0515495435
C   C239      1.0  0.45300  0.82280  0.54906  1.0000 -0.0515495435
C   C240      1.0  0.54700  0.17720  0.54906  1.0000 -0.0515495435
C   C241      1.0  0.91840  0.49670  0.41885  1.0000 -0.1649502557
C   C242      1.0  0.00330  0.41840  0.91885  1.0000 -0.1649502557
C   C243      1.0  0.08160  0.50330  0.41885  1.0000 -0.1657779496
C   C244      1.0  0.99670  0.58160  0.91885  1.0000 -0.1649502557
C   C245      1.0  0.41840  0.00330  0.08115  1.0000 -0.1657779496
C   C246      1.0  0.58160  0.99670  0.08115  1.0000 -0.1657779496
C   C247      1.0  0.49670  0.91840  0.58115  1.0000 -0.1657779496
C   C248      1.0  0.50330  0.08160  0.58115  1.0000 -0.1657779496
C   C249      1.0  0.86740  0.44400  0.48021  1.0000 -0.0980418622
C   C250      1.0  0.05600  0.36740  0.98021  1.0000 -0.0980418622
C   C251      1.0  0.13260  0.55600  0.48021  1.0000 -0.0980418622
C   C252      1.0  0.94400  0.63260  0.98021  1.0000 -0.0980418622
C   C253      1.0  0.36740  0.05600  0.01979  1.0000 -0.0980418622
C   C254      1.0  0.63260  0.94400  0.01979  1.0000 -0.0980418622
C   C255      1.0  0.44400  0.86740  0.51979  1.0000 -0.0980418622
C   C256      1.0  0.55600  0.13260  0.51979  1.0000 -0.0980418622
C   C257      1.0  0.96250  0.48590  0.44806  1.0000 0.0726478886
C   C258      1.0  0.01410  0.46250  0.94806  1.0000 0.0726478886
C   C259      1.0  0.03750  0.51410  0.44806  1.0000 0.0726478886
C   C260      1.0  0.98590  0.53750  0.94806  1.0000 0.0726478886
C   C261      1.0  0.46250  0.01410  0.05194  1.0000 0.0726478886
C   C262      1.0  0.53750  0.98590  0.05194  1.0000 0.0726478886
C   C263      1.0  0.48590  0.96250  0.55194  1.0000 0.0726478886
C   C264      1.0  0.51410  0.03750  0.55194  1.0000 0.0726478886
C   C265      1.0  0.93510  0.46220  0.47770  1.0000 -0.131005014
C   C266      1.0  0.03780  0.43510  0.97770  1.0000 -0.131005014
C   C267      1.0  0.06490  0.53780  0.47770  1.0000 -0.131005014
C   C268      1.0  0.96220  0.56490  0.97770  1.0000 -0.131005014
C   C269      1.0  0.43510  0.03780  0.02230  1.0000 -0.131005014
C   C270      1.0  0.56490  0.96220  0.02230  1.0000 -0.131005014
C   C271      1.0  0.46220  0.93510  0.52230  1.0000 -0.131005014
C   C272      1.0  0.53780  0.06490  0.52230  1.0000 -0.131005014
O   O1        1.0  0.56690  0.47295  0.41767  1.0000 -1.0110473376
O   O2        1.0  0.02705  0.06690  0.91767  1.0000 -1.0110473376
O   O3        1.0  0.43310  0.52705  0.41767  1.0000 -1.0110473376
O   O4        1.0  0.97295  0.93310  0.91767  1.0000 -1.0110473376
O   O5        1.0  0.06690  0.02705  0.08233  1.0000 -1.0110473376
O   O6        1.0  0.93310  0.97295  0.08233  1.0000 -1.0110473376
O   O7        1.0  0.47295  0.56690  0.58233  1.0000 -1.0110473376
O   O8        1.0  0.52705  0.43310  0.58233  1.0000 -1.0110473376
O   O9        1.0  0.64640  0.40573  0.36696  1.0000 -0.5989097025
O   O10       1.0  0.09427  0.14640  0.86696  1.0000 -0.5989097025
O   O11       1.0  0.35360  0.59427  0.36696  1.0000 -0.5989097025
O   O12       1.0  0.90573  0.85360  0.86696  1.0000 -0.5989097025
O   O13       1.0  0.14640  0.09427  0.13304  1.0000 -0.5989097025
O   O14       1.0  0.85360  0.90573  0.13304  1.0000 -0.5989097025
O   O15       1.0  0.40573  0.64640  0.63304  1.0000 -0.5989097025
O   O16       1.0  0.59427  0.35360  0.63304  1.0000 -0.5989097025
O   O17       1.0  0.60269  0.36691  0.46470  1.0000 -1.0110473376
O   O18       1.0  0.13309  0.10269  0.96470  1.0000 -1.0110473376
O   O19       1.0  0.39731  0.63309  0.46470  1.0000 -1.0110473376
O   O20       1.0  0.86691  0.89731  0.96470  1.0000 -1.0110473376
O   O21       1.0  0.10269  0.13309  0.03530  1.0000 -1.0110473376
O   O22       1.0  0.89731  0.86691  0.03530  1.0000 -1.0110473376
O   O23       1.0  0.36691  0.60269  0.53530  1.0000 -1.0110473376
O   O24       1.0  0.63309  0.39731  0.53530  1.0000 -1.0110473376
O   O25       1.0  0.55958  0.47588  0.34537  1.0000 -0.5613013175
O   O26       1.0  0.02412  0.05958  0.84537  1.0000 -0.5613013175
O   O27       1.0  0.44042  0.52412  0.34537  1.0000 -0.5613013175
O   O28       1.0  0.97588  0.94042  0.84537  1.0000 -0.5613013175
O   O29       1.0  0.05958  0.02412  0.15463  1.0000 -0.5613013175
O   O30       1.0  0.94042  0.97588  0.15463  1.0000 -0.5613013175
O   O31       1.0  0.47588  0.55958  0.65463  1.0000 -0.5613013175
O   O32       1.0  0.52412  0.44042  0.65463  1.0000 -0.5613013175
O   O33       1.0  0.82276  0.81192  0.08726  1.0000 -0.5470386189
O   O34       1.0  0.68808  0.32276  0.58726  1.0000 -0.5470386189
O   O35       1.0  0.17724  0.18808  0.08726  1.0000 -0.5470386189
O   O36       1.0  0.31192  0.67724  0.58726  1.0000 -0.5470386189
O   O37       1.0  0.32276  0.68808  0.41274  1.0000 -0.5470386189
O   O38       1.0  0.67724  0.31192  0.41274  1.0000 -0.5470386189
O   O39       1.0  0.81192  0.82276  0.91274  1.0000 -0.5470386189
O   O40       1.0  0.18808  0.17724  0.91274  1.0000 -0.5470386189
O   O41       1.0  0.73366  0.39648  0.48272  1.0000 -0.5810123649
O   O42       1.0  0.10352  0.23366  0.98272  1.0000 -0.5810123649
O   O43       1.0  0.26634  0.60352  0.48272  1.0000 -0.5810123649
O   O44       1.0  0.89648  0.76634  0.98272  1.0000 -0.5810123649
O   O45       1.0  0.23366  0.10352  0.01728  1.0000 -0.5810123649
O   O46       1.0  0.76634  0.89648  0.01728  1.0000 -0.5810123649
O   O47       1.0  0.39648  0.73366  0.51728  1.0000 -0.5810123649
O   O48       1.0  0.60352  0.26634  0.51728  1.0000 -0.5810123649
O   O49       1.0  0.04641  0.16564  0.09885  1.0000 -0.6305968802
O   O50       1.0  0.33436  0.54641  0.59885  1.0000 -0.6305968802
O   O51       1.0  0.95359  0.83436  0.09885  1.0000 -0.6305968802
O   O52       1.0  0.66564  0.45359  0.59885  1.0000 -0.6305968802
O   O53       1.0  0.54641  0.33436  0.40115  1.0000 -0.6305968802
O   O54       1.0  0.45359  0.66564  0.40115  1.0000 -0.6305968802
O   O55       1.0  0.16564  0.04641  0.90115  1.0000 -0.6305968802
O   O56       1.0  0.83436  0.95359  0.90115  1.0000 -0.6305968802
O   O57       1.0  0.96031  0.09232  0.11730  1.0000 -0.5673463386
O   O58       1.0  0.40768  0.46031  0.61730  1.0000 -0.5673463386
O   O59       1.0  0.03969  0.90768  0.11730  1.0000 -0.5673463386
O   O60       1.0  0.59232  0.53969  0.61730  1.0000 -0.5673463386
O   O61       1.0  0.46031  0.40768  0.38270  1.0000 -0.5673463386
O   O62       1.0  0.53969  0.59232  0.38270  1.0000 -0.5673463386
O   O63       1.0  0.09232  0.96031  0.88270  1.0000 -0.5673463386
O   O64       1.0  0.90768  0.03969  0.88270  1.0000 -0.5673463386
O   O65       1.0  0.70540  0.43991  0.42860  1.0000 -0.5989097025
O   O66       1.0  0.06009  0.20540  0.92860  1.0000 -0.5989097025
O   O67       1.0  0.29460  0.56009  0.42860  1.0000 -0.5989097025
O   O68       1.0  0.93991  0.79460  0.92860  1.0000 -0.5989097025
O   O69       1.0  0.20540  0.06009  0.07140  1.0000 -0.5989097025
O   O70       1.0  0.79460  0.93991  0.07140  1.0000 -0.5989097025
O   O71       1.0  0.43991  0.70540  0.57140  1.0000 -0.5989097025
O   O72       1.0  0.56009  0.29460  0.57140  1.0000 -0.5989097025
O   O73       1.0  0.80219  0.76355  0.03249  1.0000 -0.5810123649
O   O74       1.0  0.73645  0.30219  0.53249  1.0000 -0.5810123649
O   O75       1.0  0.19781  0.23645  0.03249  1.0000 -0.5810123649
O   O76       1.0  0.26355  0.69781  0.53249  1.0000 -0.5810123649
O   O77       1.0  0.30219  0.73645  0.46751  1.0000 -0.5810123649
O   O78       1.0  0.69781  0.26355  0.46751  1.0000 -0.5810123649
O   O79       1.0  0.76355  0.80219  0.96751  1.0000 -0.5810123649
O   O80       1.0  0.23645  0.19781  0.96751  1.0000 -0.5810123649
