# DDEC6 charges by PACMAN v1.1 (https://github.com/mtap-research/PACMAN-charge/)
data_oc7b00169_si_002_6_FSR_pacman
_symmetry_space_group_name_H-M   'P 1'
_cell_length_a   19.13000000
_cell_length_b   19.13000000
_cell_length_c   36.48000000
_cell_angle_alpha   90.00000000
_cell_angle_beta   90.00000000
_cell_angle_gamma   90.00000000
_symmetry_Int_Tables_number   1
_chemical_formula_structural   AlH9C14O5
_chemical_formula_sum   'Al16 H144 C224 O80'
_cell_volume   13350.10771200
_cell_formula_units_Z   16
loop_
 _symmetry_equiv_pos_site_id
 _symmetry_equiv_pos_as_xyz
  1  'x, y, z'
loop_
 _atom_site_type_symbol
 _atom_site_label
 _atom_site_symmetry_multiplicity
 _atom_site_fract_x
 _atom_site_fract_y
 _atom_site_fract_z
 _atom_site_occupancy
 _atom_site_charge
Al  Al1  1  0.66374000  0.33626000  0.50000000  1.0 1.6075351516
Al  Al2  1  0.16374000  0.16374000  0.00000000  1.0 1.6075351516
Al  Al3  1  0.33626000  0.66374000  0.50000000  1.0 1.6075351516
Al  Al4  1  0.83626000  0.83626000  0.00000000  1.0 1.6075351516
Al  Al5  1  0.61615000  0.38886000  0.41646000  1.0 1.6381328085
Al  Al6  1  0.11114000  0.11615000  0.91646000  1.0 1.6381328085
Al  Al7  1  0.38385000  0.61114000  0.41646000  1.0 1.6381328085
Al  Al8  1  0.88886000  0.88385000  0.91646000  1.0 1.6381328085
Al  Al9  1  0.11615000  0.11114000  0.08354000  1.0 1.6381328085
Al  Al10  1  0.88385000  0.88886000  0.08354000  1.0 1.6381328085
Al  Al11  1  0.38886000  0.61615000  0.58354000  1.0 1.6381328085
Al  Al12  1  0.61114000  0.38385000  0.58354000  1.0 1.6381328085
Al  Al13  1  0.50000000  0.50000000  0.38307000  1.0 1.6381328085
Al  Al14  1  0.00000000  0.00000000  0.88307000  1.0 1.6381328085
Al  Al15  1  0.00000000  0.00000000  0.11693000  1.0 1.6381328085
Al  Al16  1  0.50000000  0.50000000  0.61693000  1.0 1.6381328085
H  H1  1  0.57200000  0.50070000  0.43880000  1.0 0.4179332981
H  H2  1  0.99930000  0.07200000  0.93880000  1.0 0.4179332981
H  H3  1  0.42800000  0.49930000  0.43880000  1.0 0.4179332981
H  H4  1  0.00070000  0.92800000  0.93880000  1.0 0.4179332981
H  H5  1  0.07200000  0.99930000  0.06120000  1.0 0.4179332981
H  H6  1  0.92800000  0.00070000  0.06120000  1.0 0.4179332981
H  H7  1  0.50070000  0.57200000  0.56120000  1.0 0.4179332981
H  H8  1  0.49930000  0.42800000  0.56120000  1.0 0.4179332981
H  H9  1  0.55430000  0.37280000  0.47330000  1.0 0.4179332981
H  H10  1  0.12720000  0.05430000  0.97330000  1.0 0.4179332981
H  H11  1  0.44570000  0.62720000  0.47330000  1.0 0.4179332981
H  H12  1  0.87280000  0.94570000  0.97330000  1.0 0.4179332981
H  H13  1  0.05430000  0.12720000  0.02670000  1.0 0.4179332981
H  H14  1  0.94570000  0.87280000  0.02670000  1.0 0.4179332981
H  H15  1  0.37280000  0.55430000  0.52670000  1.0 0.4179332981
H  H16  1  0.62720000  0.44570000  0.52670000  1.0 0.4179332981
H  H17  1  0.76360000  0.62620000  0.16580000  1.0 0.1042270053
H  H18  1  0.87380000  0.26360000  0.66580000  1.0 0.1042270053
H  H19  1  0.23640000  0.37380000  0.16580000  1.0 0.1042270053
H  H20  1  0.12620000  0.73640000  0.66580000  1.0 0.1042270053
H  H21  1  0.26360000  0.87380000  0.33420000  1.0 0.1042270053
H  H22  1  0.73640000  0.12620000  0.33420000  1.0 0.1042270053
H  H23  1  0.62620000  0.76360000  0.83420000  1.0 0.1042270053
H  H24  1  0.37380000  0.23640000  0.83420000  1.0 0.1042270053
H  H25  1  0.77280000  0.63750000  0.03970000  1.0 0.1328299556
H  H26  1  0.86250000  0.27280000  0.53970000  1.0 0.1328299556
H  H27  1  0.22720000  0.36250000  0.03970000  1.0 0.1328299556
H  H28  1  0.13750000  0.72720000  0.53970000  1.0 0.1328299556
H  H29  1  0.27280000  0.86250000  0.46030000  1.0 0.1328299556
H  H30  1  0.72720000  0.13750000  0.46030000  1.0 0.1328299556
H  H31  1  0.63750000  0.77280000  0.96030000  1.0 0.1328299556
H  H32  1  0.36250000  0.22720000  0.96030000  1.0 0.1328299556
H  H33  1  0.77670000  0.73680000  0.13470000  1.0 0.1328299556
H  H34  1  0.76320000  0.27670000  0.63470000  1.0 0.1328299556
H  H35  1  0.22330000  0.26320000  0.13470000  1.0 0.1328299556
H  H36  1  0.23680000  0.72330000  0.63470000  1.0 0.1328299556
H  H37  1  0.27670000  0.76320000  0.36530000  1.0 0.1328299556
H  H38  1  0.72330000  0.23680000  0.36530000  1.0 0.1328299556
H  H39  1  0.73680000  0.77670000  0.86530000  1.0 0.1328299556
H  H40  1  0.26320000  0.22330000  0.86530000  1.0 0.1328299556
H  H41  1  0.77960000  0.52670000  0.07100000  1.0 0.1042270053
H  H42  1  0.97330000  0.27960000  0.57100000  1.0 0.1042270053
H  H43  1  0.22040000  0.47330000  0.07100000  1.0 0.1042270053
H  H44  1  0.02670000  0.72040000  0.57100000  1.0 0.1042270053
H  H45  1  0.27960000  0.97330000  0.42900000  1.0 0.1042270053
H  H46  1  0.72040000  0.02670000  0.42900000  1.0 0.1042270053
H  H47  1  0.52670000  0.77960000  0.92900000  1.0 0.1042270053
H  H48  1  0.47330000  0.22040000  0.92900000  1.0 0.1042270053
H  H49  1  0.57940000  0.50780000  0.27930000  1.0 0.1198757876
H  H50  1  0.99220000  0.07940000  0.77930000  1.0 0.1198757876
H  H51  1  0.42060000  0.49220000  0.27930000  1.0 0.1198757876
H  H52  1  0.00780000  0.92060000  0.77930000  1.0 0.1198757876
H  H53  1  0.07940000  0.99220000  0.22070000  1.0 0.1198757876
H  H54  1  0.92060000  0.00780000  0.22070000  1.0 0.1198757876
H  H55  1  0.50780000  0.57940000  0.72070000  1.0 0.1198757876
H  H56  1  0.49220000  0.42060000  0.72070000  1.0 0.1198757876
H  H57  1  0.85840000  0.15580000  0.14410000  1.0 0.1328299556
H  H58  1  0.34420000  0.35840000  0.64410000  1.0 0.1328299556
H  H59  1  0.14160000  0.84420000  0.14410000  1.0 0.1328299556
H  H60  1  0.65580000  0.64160000  0.64410000  1.0 0.1328299556
H  H61  1  0.35840000  0.34420000  0.35590000  1.0 0.1328299556
H  H62  1  0.64160000  0.65580000  0.35590000  1.0 0.1328299556
H  H63  1  0.15580000  0.85840000  0.85590000  1.0 0.1328299556
H  H64  1  0.84420000  0.14160000  0.85590000  1.0 0.1328299556
H  H65  1  0.98280000  0.28520000  0.08830000  1.0 0.1198757876
H  H66  1  0.21480000  0.48280000  0.58830000  1.0 0.1198757876
H  H67  1  0.01720000  0.71480000  0.08830000  1.0 0.1198757876
H  H68  1  0.78520000  0.51720000  0.58830000  1.0 0.1198757876
H  H69  1  0.48280000  0.21480000  0.41170000  1.0 0.1198757876
H  H70  1  0.51720000  0.78520000  0.41170000  1.0 0.1198757876
H  H71  1  0.28520000  0.98280000  0.91170000  1.0 0.1198757876
H  H72  1  0.71480000  0.01720000  0.91170000  1.0 0.1198757876
H  H73  1  0.62230000  0.49950000  0.22370000  1.0 0.1198757876
H  H74  1  0.00050000  0.12230000  0.72370000  1.0 0.1198757876
H  H75  1  0.37770000  0.50050000  0.22370000  1.0 0.1198757876
H  H76  1  0.99950000  0.87770000  0.72370000  1.0 0.1198757876
H  H77  1  0.12230000  0.00050000  0.27630000  1.0 0.1198757876
H  H78  1  0.87770000  0.99950000  0.27630000  1.0 0.1198757876
H  H79  1  0.49950000  0.62230000  0.77630000  1.0 0.1198757876
H  H80  1  0.50050000  0.37770000  0.77630000  1.0 0.1198757876
H  H81  1  0.70320000  0.53380000  0.18130000  1.0 0.1091450249
H  H82  1  0.96620000  0.20320000  0.68130000  1.0 0.1091450249
H  H83  1  0.29680000  0.46620000  0.18130000  1.0 0.1091450249
H  H84  1  0.03380000  0.79680000  0.68130000  1.0 0.1091450249
H  H85  1  0.20320000  0.96620000  0.31870000  1.0 0.1091450249
H  H86  1  0.79680000  0.03380000  0.31870000  1.0 0.1091450249
H  H87  1  0.53380000  0.70320000  0.81870000  1.0 0.1091450249
H  H88  1  0.46620000  0.29680000  0.81870000  1.0 0.1091450249
H  H89  1  0.91390000  0.37590000  0.11490000  1.0 0.1198757876
H  H90  1  0.12410000  0.41390000  0.61490000  1.0 0.1198757876
H  H91  1  0.08610000  0.62410000  0.11490000  1.0 0.1198757876
H  H92  1  0.87590000  0.58610000  0.61490000  1.0 0.1198757876
H  H93  1  0.41390000  0.12410000  0.38510000  1.0 0.1198757876
H  H94  1  0.58610000  0.87590000  0.38510000  1.0 0.1198757876
H  H95  1  0.37590000  0.91390000  0.88510000  1.0 0.1198757876
H  H96  1  0.62410000  0.08610000  0.88510000  1.0 0.1198757876
H  H97  1  0.78880000  0.24590000  0.15940000  1.0 0.1198757876
H  H98  1  0.25410000  0.28880000  0.65940000  1.0 0.1198757876
H  H99  1  0.21120000  0.75410000  0.15940000  1.0 0.1198757876
H  H100  1  0.74590000  0.71120000  0.65940000  1.0 0.1198757876
H  H101  1  0.28880000  0.25410000  0.34060000  1.0 0.1198757876
H  H102  1  0.71120000  0.74590000  0.34060000  1.0 0.1198757876
H  H103  1  0.24590000  0.78880000  0.84060000  1.0 0.1198757876
H  H104  1  0.75410000  0.21120000  0.84060000  1.0 0.1198757876
H  H105  1  0.76890000  0.33810000  0.19750000  1.0 0.1091450249
H  H106  1  0.16190000  0.26890000  0.69750000  1.0 0.1091450249
H  H107  1  0.23110000  0.66190000  0.19750000  1.0 0.1091450249
H  H108  1  0.83810000  0.73110000  0.69750000  1.0 0.1091450249
H  H109  1  0.26890000  0.16190000  0.30250000  1.0 0.1091450249
H  H110  1  0.73110000  0.83810000  0.30250000  1.0 0.1091450249
H  H111  1  0.33810000  0.76890000  0.80250000  1.0 0.1091450249
H  H112  1  0.66190000  0.23110000  0.80250000  1.0 0.1091450249
H  H113  1  0.77310000  0.47250000  0.45480000  1.0 0.0705198404
H  H114  1  0.02750000  0.27310000  0.95480000  1.0 0.0705198404
H  H115  1  0.22690000  0.52750000  0.45480000  1.0 0.0705198404
H  H116  1  0.97250000  0.72690000  0.95480000  1.0 0.0705198404
H  H117  1  0.27310000  0.02750000  0.04520000  1.0 0.0705198404
H  H118  1  0.72690000  0.97250000  0.04520000  1.0 0.0705198404
H  H119  1  0.47250000  0.77310000  0.54520000  1.0 0.0705198404
H  H120  1  0.52750000  0.22690000  0.54520000  1.0 0.0705198404
H  H121  1  0.71680000  0.36560000  0.31430000  1.0 0.1328299556
H  H122  1  0.13440000  0.21680000  0.81430000  1.0 0.1328299556
H  H123  1  0.28320000  0.63440000  0.31430000  1.0 0.1328299556
H  H124  1  0.86560000  0.78320000  0.81430000  1.0 0.1328299556
H  H125  1  0.21680000  0.13440000  0.18570000  1.0 0.1328299556
H  H126  1  0.78320000  0.86560000  0.18570000  1.0 0.1328299556
H  H127  1  0.36560000  0.71680000  0.68570000  1.0 0.1328299556
H  H128  1  0.63440000  0.28320000  0.68570000  1.0 0.1328299556
H  H129  1  0.76900000  0.36860000  0.26060000  1.0 0.1198757876
H  H130  1  0.13140000  0.26900000  0.76060000  1.0 0.1198757876
H  H131  1  0.23100000  0.63140000  0.26060000  1.0 0.1198757876
H  H132  1  0.86860000  0.73100000  0.76060000  1.0 0.1198757876
H  H133  1  0.26900000  0.13140000  0.23940000  1.0 0.1198757876
H  H134  1  0.73100000  0.86860000  0.23940000  1.0 0.1198757876
H  H135  1  0.36860000  0.76900000  0.73940000  1.0 0.1198757876
H  H136  1  0.63140000  0.23100000  0.73940000  1.0 0.1198757876
H  H137  1  0.81440000  0.44190000  0.10490000  1.0 0.1091450249
H  H138  1  0.05810000  0.31440000  0.60490000  1.0 0.1091450249
H  H139  1  0.18560000  0.55810000  0.10490000  1.0 0.1091450249
H  H140  1  0.94190000  0.68560000  0.60490000  1.0 0.1091450249
H  H141  1  0.31440000  0.05810000  0.39510000  1.0 0.1091450249
H  H142  1  0.68560000  0.94190000  0.39510000  1.0 0.1091450249
H  H143  1  0.44190000  0.81440000  0.89510000  1.0 0.1091450249
H  H144  1  0.55810000  0.18560000  0.89510000  1.0 0.1091450249
C  C1  1  0.60950000  0.43670000  0.33930000  1.0 0.5719478706
C  C2  1  0.06330000  0.10950000  0.83930000  1.0 0.5719478706
C  C3  1  0.39050000  0.56330000  0.33930000  1.0 0.5719478706
C  C4  1  0.93670000  0.89050000  0.83930000  1.0 0.5719478706
C  C5  1  0.10950000  0.06330000  0.16070000  1.0 0.5719478706
C  C6  1  0.89050000  0.93670000  0.16070000  1.0 0.5719478706
C  C7  1  0.43670000  0.60950000  0.66070000  1.0 0.5719478706
C  C8  1  0.56330000  0.39050000  0.66070000  1.0 0.5719478706
C  C9  1  0.76670000  0.62870000  0.14040000  1.0 -0.170505969
C  C10  1  0.87130000  0.26670000  0.64040000  1.0 -0.170505969
C  C11  1  0.23330000  0.37130000  0.14040000  1.0 -0.170505969
C  C12  1  0.12870000  0.73330000  0.64040000  1.0 -0.170505969
C  C13  1  0.26670000  0.87130000  0.35960000  1.0 -0.170505969
C  C14  1  0.73330000  0.12870000  0.35960000  1.0 -0.170505969
C  C15  1  0.62870000  0.76670000  0.85960000  1.0 -0.170505969
C  C16  1  0.37130000  0.23330000  0.85960000  1.0 -0.170505969
C  C17  1  0.77650000  0.63460000  0.06510000  1.0 -0.0950753039
C  C18  1  0.86540000  0.27650000  0.56510000  1.0 -0.0950753039
C  C19  1  0.22350000  0.36540000  0.06510000  1.0 -0.0950753039
C  C20  1  0.13460000  0.72350000  0.56510000  1.0 -0.0950753039
C  C21  1  0.27650000  0.86540000  0.43490000  1.0 -0.0950753039
C  C22  1  0.72350000  0.13460000  0.43490000  1.0 -0.0950753039
C  C23  1  0.63460000  0.77650000  0.93490000  1.0 -0.0950753039
C  C24  1  0.36540000  0.22350000  0.93490000  1.0 -0.0950753039
C  C25  1  0.97450000  0.14760000  0.11200000  1.0 0.604362307
C  C26  1  0.35240000  0.47450000  0.61200000  1.0 0.604362307
C  C27  1  0.02550000  0.85240000  0.11200000  1.0 0.604362307
C  C28  1  0.64760000  0.52550000  0.61200000  1.0 0.604362307
C  C29  1  0.47450000  0.35240000  0.38800000  1.0 0.604362307
C  C30  1  0.52550000  0.64760000  0.38800000  1.0 0.604362307
C  C31  1  0.14760000  0.97450000  0.88800000  1.0 0.604362307
C  C32  1  0.85240000  0.02550000  0.88800000  1.0 0.604362307
C  C33  1  0.77630000  0.69440000  0.12220000  1.0 -0.0950753039
C  C34  1  0.80560000  0.27630000  0.62220000  1.0 -0.0950753039
C  C35  1  0.22370000  0.30560000  0.12220000  1.0 -0.0950753039
C  C36  1  0.19440000  0.72370000  0.62220000  1.0 -0.0950753039
C  C37  1  0.27630000  0.80560000  0.37780000  1.0 -0.0950753039
C  C38  1  0.72370000  0.19440000  0.37780000  1.0 -0.0950753039
C  C39  1  0.69440000  0.77630000  0.87780000  1.0 -0.0950753039
C  C40  1  0.30560000  0.22370000  0.87780000  1.0 -0.0950753039
C  C41  1  0.77320000  0.56800000  0.08410000  1.0 -0.1284391137
C  C42  1  0.93200000  0.27320000  0.58410000  1.0 -0.1284391137
C  C43  1  0.22680000  0.43200000  0.08410000  1.0 -0.1284391137
C  C44  1  0.06800000  0.72680000  0.58410000  1.0 -0.1284391137
C  C45  1  0.27320000  0.93200000  0.41590000  1.0 -0.1284391137
C  C46  1  0.72680000  0.06800000  0.41590000  1.0 -0.1284391137
C  C47  1  0.56800000  0.77320000  0.91590000  1.0 -0.1284391137
C  C48  1  0.43200000  0.22680000  0.91590000  1.0 -0.1284391137
C  C49  1  0.78480000  0.68970000  0.08510000  1.0 -0.0126086163
C  C50  1  0.81030000  0.28480000  0.58510000  1.0 -0.0126086163
C  C51  1  0.21520000  0.31030000  0.08510000  1.0 -0.0126086163
C  C52  1  0.18970000  0.71520000  0.58510000  1.0 -0.0126086163
C  C53  1  0.28480000  0.81030000  0.41490000  1.0 -0.0126086163
C  C54  1  0.71520000  0.18970000  0.41490000  1.0 -0.0126086163
C  C55  1  0.68970000  0.78480000  0.91490000  1.0 -0.0126086163
C  C56  1  0.31030000  0.21520000  0.91490000  1.0 -0.0126086163
C  C57  1  0.80500000  0.76120000  0.06260000  1.0 0.604362307
C  C58  1  0.73880000  0.30500000  0.56260000  1.0 0.604362307
C  C59  1  0.19500000  0.23880000  0.06260000  1.0 0.604362307
C  C60  1  0.26120000  0.69500000  0.56260000  1.0 0.604362307
C  C61  1  0.30500000  0.73880000  0.43740000  1.0 0.604362307
C  C62  1  0.69500000  0.26120000  0.43740000  1.0 0.604362307
C  C63  1  0.76120000  0.80500000  0.93740000  1.0 0.604362307
C  C64  1  0.23880000  0.19500000  0.93740000  1.0 0.604362307
C  C65  1  0.93170000  0.20850000  0.12050000  1.0 -0.0594141559
C  C66  1  0.29150000  0.43170000  0.62050000  1.0 -0.0594141559
C  C67  1  0.06830000  0.79150000  0.12050000  1.0 -0.0594141559
C  C68  1  0.70850000  0.56830000  0.62050000  1.0 -0.0594141559
C  C69  1  0.43170000  0.29150000  0.37950000  1.0 -0.0594141559
C  C70  1  0.56830000  0.70850000  0.37950000  1.0 -0.0594141559
C  C71  1  0.20850000  0.93170000  0.87950000  1.0 -0.0594141559
C  C72  1  0.79150000  0.06830000  0.87950000  1.0 -0.0594141559
C  C73  1  0.61590000  0.47670000  0.27520000  1.0 -0.0782288808
C  C74  1  0.02330000  0.11590000  0.77520000  1.0 -0.0782288808
C  C75  1  0.38410000  0.52330000  0.27520000  1.0 -0.0782288808
C  C76  1  0.97670000  0.88410000  0.77520000  1.0 -0.0782288808
C  C77  1  0.11590000  0.02330000  0.22480000  1.0 -0.0782288808
C  C78  1  0.88410000  0.97670000  0.22480000  1.0 -0.0782288808
C  C79  1  0.47670000  0.61590000  0.72480000  1.0 -0.0782288808
C  C80  1  0.52330000  0.38410000  0.72480000  1.0 -0.0782288808
C  C81  1  0.76180000  0.56580000  0.11770000  1.0 0.0705198404
C  C82  1  0.93420000  0.26180000  0.61770000  1.0 0.0705198404
C  C83  1  0.23820000  0.43420000  0.11770000  1.0 0.0705198404
C  C84  1  0.06580000  0.73820000  0.61770000  1.0 0.0705198404
C  C85  1  0.26180000  0.93420000  0.38230000  1.0 0.0705198404
C  C86  1  0.73820000  0.06580000  0.38230000  1.0 0.0705198404
C  C87  1  0.56580000  0.76180000  0.88230000  1.0 0.0705198404
C  C88  1  0.43420000  0.23820000  0.88230000  1.0 0.0705198404
C  C89  1  0.87210000  0.20070000  0.13740000  1.0 -0.0782288808
C  C90  1  0.29930000  0.37210000  0.63740000  1.0 -0.0782288808
C  C91  1  0.12790000  0.79930000  0.13740000  1.0 -0.0782288808
C  C92  1  0.70070000  0.62790000  0.63740000  1.0 -0.0782288808
C  C93  1  0.37210000  0.29930000  0.36260000  1.0 -0.0782288808
C  C94  1  0.62790000  0.70070000  0.36260000  1.0 -0.0782288808
C  C95  1  0.20070000  0.87210000  0.86260000  1.0 -0.0782288808
C  C96  1  0.79930000  0.12790000  0.86260000  1.0 -0.0782288808
C  C97  1  0.64290000  0.43360000  0.30630000  1.0 -0.1128625741
C  C98  1  0.06640000  0.14290000  0.80630000  1.0 -0.1128625741
C  C99  1  0.35710000  0.56640000  0.30630000  1.0 -0.1128625741
C  C100  1  0.93360000  0.85710000  0.80630000  1.0 -0.1128625741
C  C101  1  0.14290000  0.06640000  0.19370000  1.0 -0.1128625741
C  C102  1  0.85710000  0.93360000  0.19370000  1.0 -0.1128625741
C  C103  1  0.43360000  0.64290000  0.69370000  1.0 -0.1128625741
C  C104  1  0.56640000  0.35710000  0.69370000  1.0 -0.1128625741
C  C105  1  0.94710000  0.27680000  0.10500000  1.0 -0.072290953
C  C106  1  0.22320000  0.44710000  0.60500000  1.0 -0.072290953
C  C107  1  0.05290000  0.72320000  0.10500000  1.0 -0.072290953
C  C108  1  0.77680000  0.55290000  0.60500000  1.0 -0.072290953
C  C109  1  0.44710000  0.22320000  0.39500000  1.0 -0.072290953
C  C110  1  0.55290000  0.77680000  0.39500000  1.0 -0.072290953
C  C111  1  0.27680000  0.94710000  0.89500000  1.0 -0.072290953
C  C112  1  0.72320000  0.05290000  0.89500000  1.0 -0.072290953
C  C113  1  0.84000000  0.31980000  0.13590000  1.0 0.0611329054
C  C114  1  0.18020000  0.34000000  0.63590000  1.0 0.0611329054
C  C115  1  0.16000000  0.68020000  0.13590000  1.0 0.0611329054
C  C116  1  0.81980000  0.66000000  0.63590000  1.0 0.0611329054
C  C117  1  0.34000000  0.18020000  0.36410000  1.0 0.0611329054
C  C118  1  0.66000000  0.81980000  0.36410000  1.0 0.0611329054
C  C119  1  0.31980000  0.84000000  0.86410000  1.0 0.0611329054
C  C120  1  0.68020000  0.16000000  0.86410000  1.0 0.0611329054
C  C121  1  0.64290000  0.47170000  0.24170000  1.0 -0.1284391137
C  C122  1  0.02830000  0.14290000  0.74170000  1.0 -0.1284391137
C  C123  1  0.35710000  0.52830000  0.24170000  1.0 -0.1284391137
C  C124  1  0.97170000  0.85710000  0.74170000  1.0 -0.1284391137
C  C125  1  0.14290000  0.02830000  0.25830000  1.0 -0.1284391137
C  C126  1  0.85710000  0.97170000  0.25830000  1.0 -0.1284391137
C  C127  1  0.47170000  0.64290000  0.75830000  1.0 -0.1284391137
C  C128  1  0.52830000  0.35710000  0.75830000  1.0 -0.1284391137
C  C129  1  0.72670000  0.49470000  0.17250000  1.0 -0.2215817572
C  C130  1  0.00530000  0.22670000  0.67250000  1.0 -0.2215817572
C  C131  1  0.27330000  0.50530000  0.17250000  1.0 -0.2215817572
C  C132  1  0.99470000  0.77330000  0.67250000  1.0 -0.2215817572
C  C133  1  0.22670000  0.00530000  0.32750000  1.0 -0.2215817572
C  C134  1  0.77330000  0.99470000  0.32750000  1.0 -0.2215817572
C  C135  1  0.49470000  0.72670000  0.82750000  1.0 -0.2215817572
C  C136  1  0.50530000  0.27330000  0.82750000  1.0 -0.2215817572
C  C137  1  0.90040000  0.32970000  0.11860000  1.0 -0.1803828871
C  C138  1  0.17030000  0.40040000  0.61860000  1.0 -0.1803828871
C  C139  1  0.09960000  0.67030000  0.11860000  1.0 -0.1803828871
C  C140  1  0.82970000  0.59960000  0.61860000  1.0 -0.1803828871
C  C141  1  0.40040000  0.17030000  0.38140000  1.0 -0.1803828871
C  C142  1  0.59960000  0.82970000  0.38140000  1.0 -0.1803828871
C  C143  1  0.32970000  0.90040000  0.88140000  1.0 -0.1803828871
C  C144  1  0.67030000  0.09960000  0.88140000  1.0 -0.1803828871
C  C145  1  0.80340000  0.37850000  0.15120000  1.0 0.0705198404
C  C146  1  0.12150000  0.30340000  0.65120000  1.0 0.0705198404
C  C147  1  0.19660000  0.62150000  0.15120000  1.0 0.0705198404
C  C148  1  0.87850000  0.69660000  0.65120000  1.0 0.0705198404
C  C149  1  0.30340000  0.12150000  0.34880000  1.0 0.0705198404
C  C150  1  0.69660000  0.87850000  0.34880000  1.0 0.0705198404
C  C151  1  0.37850000  0.80340000  0.84880000  1.0 0.0705198404
C  C152  1  0.62150000  0.19660000  0.84880000  1.0 0.0705198404
C  C153  1  0.82880000  0.25530000  0.14580000  1.0 -0.170505969
C  C154  1  0.24470000  0.32880000  0.64580000  1.0 -0.170505969
C  C155  1  0.17120000  0.74470000  0.14580000  1.0 -0.170505969
C  C156  1  0.75530000  0.67120000  0.64580000  1.0 -0.170505969
C  C157  1  0.32880000  0.24470000  0.35420000  1.0 -0.170505969
C  C158  1  0.67120000  0.75530000  0.35420000  1.0 -0.170505969
C  C159  1  0.25530000  0.82880000  0.85420000  1.0 -0.170505969
C  C160  1  0.74470000  0.17120000  0.85420000  1.0 -0.170505969
C  C161  1  0.75790000  0.49650000  0.13900000  1.0 0.0854477266
C  C162  1  0.00350000  0.25790000  0.63900000  1.0 0.0854477266
C  C163  1  0.24210000  0.50350000  0.13900000  1.0 0.0854477266
C  C164  1  0.99650000  0.74210000  0.63900000  1.0 0.0854477266
C  C165  1  0.25790000  0.00350000  0.36100000  1.0 0.0854477266
C  C166  1  0.74210000  0.99650000  0.36100000  1.0 0.0854477266
C  C167  1  0.49650000  0.75790000  0.86100000  1.0 0.0854477266
C  C168  1  0.50350000  0.24210000  0.86100000  1.0 0.0854477266
C  C169  1  0.76780000  0.37780000  0.18280000  1.0 -0.1803828871
C  C170  1  0.12220000  0.26780000  0.68280000  1.0 -0.1803828871
C  C171  1  0.23220000  0.62220000  0.18280000  1.0 -0.1803828871
C  C172  1  0.87780000  0.73220000  0.68280000  1.0 -0.1803828871
C  C173  1  0.26780000  0.12220000  0.31720000  1.0 -0.1803828871
C  C174  1  0.73220000  0.87780000  0.31720000  1.0 -0.1803828871
C  C175  1  0.37780000  0.76780000  0.81720000  1.0 -0.1803828871
C  C176  1  0.62220000  0.23220000  0.81720000  1.0 -0.1803828871
C  C177  1  0.73750000  0.43940000  0.45450000  1.0 0.5077622289
C  C178  1  0.06060000  0.23750000  0.95450000  1.0 0.5077622289
C  C179  1  0.26250000  0.56060000  0.45450000  1.0 0.5077622289
C  C180  1  0.93940000  0.76250000  0.95450000  1.0 0.5077622289
C  C181  1  0.23750000  0.06060000  0.04550000  1.0 0.5077622289
C  C182  1  0.76250000  0.93940000  0.04550000  1.0 0.5077622289
C  C183  1  0.43940000  0.73750000  0.54550000  1.0 0.5077622289
C  C184  1  0.56060000  0.26250000  0.54550000  1.0 0.5077622289
C  C185  1  0.69390000  0.43300000  0.23120000  1.0 0.0705198404
C  C186  1  0.06700000  0.19390000  0.73120000  1.0 0.0705198404
C  C187  1  0.30610000  0.56700000  0.23120000  1.0 0.0705198404
C  C188  1  0.93300000  0.80610000  0.73120000  1.0 0.0705198404
C  C189  1  0.19390000  0.06700000  0.26880000  1.0 0.0705198404
C  C190  1  0.80610000  0.93300000  0.26880000  1.0 0.0705198404
C  C191  1  0.43300000  0.69390000  0.76880000  1.0 0.0705198404
C  C192  1  0.56700000  0.30610000  0.76880000  1.0 0.0705198404
C  C193  1  0.73010000  0.43400000  0.19360000  1.0 0.0611329054
C  C194  1  0.06600000  0.23010000  0.69360000  1.0 0.0611329054
C  C195  1  0.26990000  0.56600000  0.19360000  1.0 0.0611329054
C  C196  1  0.93400000  0.76990000  0.69360000  1.0 0.0611329054
C  C197  1  0.23010000  0.06600000  0.30640000  1.0 0.0611329054
C  C198  1  0.76990000  0.93400000  0.30640000  1.0 0.0611329054
C  C199  1  0.43400000  0.73010000  0.80640000  1.0 0.0611329054
C  C200  1  0.56600000  0.26990000  0.80640000  1.0 0.0611329054
C  C201  1  0.69780000  0.39460000  0.29650000  1.0 -0.072290953
C  C202  1  0.10540000  0.19780000  0.79650000  1.0 -0.072290953
C  C203  1  0.30220000  0.60540000  0.29650000  1.0 -0.072290953
C  C204  1  0.89460000  0.80220000  0.79650000  1.0 -0.072290953
C  C205  1  0.19780000  0.10540000  0.20350000  1.0 -0.072290953
C  C206  1  0.80220000  0.89460000  0.20350000  1.0 -0.072290953
C  C207  1  0.39460000  0.69780000  0.70350000  1.0 -0.072290953
C  C208  1  0.60540000  0.30220000  0.70350000  1.0 -0.072290953
C  C209  1  0.72760000  0.39330000  0.26400000  1.0 -0.1480527988
C  C210  1  0.10670000  0.22760000  0.76400000  1.0 -0.1480527988
C  C211  1  0.27240000  0.60670000  0.26400000  1.0 -0.1480527988
C  C212  1  0.89330000  0.77240000  0.76400000  1.0 -0.1480527988
C  C213  1  0.22760000  0.10670000  0.23600000  1.0 -0.1480527988
C  C214  1  0.77240000  0.89330000  0.23600000  1.0 -0.1480527988
C  C215  1  0.39330000  0.72760000  0.73600000  1.0 -0.1480527988
C  C216  1  0.60670000  0.27240000  0.73600000  1.0 -0.1480527988
C  C217  1  0.79410000  0.44120000  0.12800000  1.0 -0.1965794211
C  C218  1  0.05880000  0.29410000  0.62800000  1.0 -0.1965794211
C  C219  1  0.20590000  0.55880000  0.12800000  1.0 -0.1965794211
C  C220  1  0.94120000  0.70590000  0.62800000  1.0 -0.1965794211
C  C221  1  0.29410000  0.05880000  0.37200000  1.0 -0.1965794211
C  C222  1  0.70590000  0.94120000  0.37200000  1.0 -0.1965794211
C  C223  1  0.44120000  0.79410000  0.87200000  1.0 -0.1965794211
C  C224  1  0.55880000  0.20590000  0.87200000  1.0 -0.1965794211
O  O1  1  0.56490000  0.47160000  0.41875000  1.0 -1.0015580861
O  O2  1  0.02840000  0.06490000  0.91875000  1.0 -1.0015580861
O  O3  1  0.43510000  0.52840000  0.41875000  1.0 -1.0015580861
O  O4  1  0.97160000  0.93510000  0.91875000  1.0 -1.0015580861
O  O5  1  0.06490000  0.02840000  0.08125000  1.0 -1.0015580861
O  O6  1  0.93510000  0.97160000  0.08125000  1.0 -1.0015580861
O  O7  1  0.47160000  0.56490000  0.58125000  1.0 -1.0015580861
O  O8  1  0.52840000  0.43510000  0.58125000  1.0 -1.0015580861
O  O9  1  0.63970000  0.39990000  0.36570000  1.0 -0.5890782496
O  O10  1  0.10010000  0.13970000  0.86570000  1.0 -0.5890782496
O  O11  1  0.36030000  0.60010000  0.36570000  1.0 -0.5890782496
O  O12  1  0.89990000  0.86030000  0.86570000  1.0 -0.5890782496
O  O13  1  0.13970000  0.10010000  0.13430000  1.0 -0.5890782496
O  O14  1  0.86030000  0.89990000  0.13430000  1.0 -0.5890782496
O  O15  1  0.39990000  0.63970000  0.63430000  1.0 -0.5890782496
O  O16  1  0.60010000  0.36030000  0.63430000  1.0 -0.5890782496
O  O17  1  0.60010000  0.36730000  0.46521000  1.0 -1.0015580861
O  O18  1  0.13270000  0.10010000  0.96521000  1.0 -1.0015580861
O  O19  1  0.39990000  0.63270000  0.46521000  1.0 -1.0015580861
O  O20  1  0.86730000  0.89990000  0.96521000  1.0 -1.0015580861
O  O21  1  0.10010000  0.13270000  0.03479000  1.0 -1.0015580861
O  O22  1  0.89990000  0.86730000  0.03479000  1.0 -1.0015580861
O  O23  1  0.36730000  0.60010000  0.53479000  1.0 -1.0015580861
O  O24  1  0.63270000  0.39990000  0.53479000  1.0 -1.0015580861
O  O25  1  0.55910000  0.47470000  0.34412000  1.0 -0.5301111361
O  O26  1  0.02530000  0.05910000  0.84412000  1.0 -0.5301111361
O  O27  1  0.44090000  0.52530000  0.34412000  1.0 -0.5301111361
O  O28  1  0.97470000  0.94090000  0.84412000  1.0 -0.5301111361
O  O29  1  0.05910000  0.02530000  0.15588000  1.0 -0.5301111361
O  O30  1  0.94090000  0.97470000  0.15588000  1.0 -0.5301111361
O  O31  1  0.47470000  0.55910000  0.65588000  1.0 -0.5301111361
O  O32  1  0.52530000  0.44090000  0.65588000  1.0 -0.5301111361
O  O33  1  0.82730000  0.80400000  0.08941000  1.0 -0.5980911871
O  O34  1  0.69600000  0.32730000  0.58941000  1.0 -0.5980911871
O  O35  1  0.17270000  0.19600000  0.08941000  1.0 -0.5980911871
O  O36  1  0.30400000  0.67270000  0.58941000  1.0 -0.5980911871
O  O37  1  0.32730000  0.69600000  0.41059000  1.0 -0.5980911871
O  O38  1  0.67270000  0.30400000  0.41059000  1.0 -0.5980911871
O  O39  1  0.80400000  0.82730000  0.91059000  1.0 -0.5980911871
O  O40  1  0.19600000  0.17270000  0.91059000  1.0 -0.5980911871
O  O41  1  0.73370000  0.39780000  0.48275000  1.0 -0.566223385
O  O42  1  0.10220000  0.23370000  0.98275000  1.0 -0.566223385
O  O43  1  0.26630000  0.60220000  0.48275000  1.0 -0.566223385
O  O44  1  0.89780000  0.76630000  0.98275000  1.0 -0.566223385
O  O45  1  0.23370000  0.10220000  0.01725000  1.0 -0.566223385
O  O46  1  0.76630000  0.89780000  0.01725000  1.0 -0.566223385
O  O47  1  0.39780000  0.73370000  0.51725000  1.0 -0.566223385
O  O48  1  0.60220000  0.26630000  0.51725000  1.0 -0.566223385
O  O49  1  0.03910000  0.16710000  0.09762000  1.0 -0.662798526
O  O50  1  0.33290000  0.53910000  0.59762000  1.0 -0.662798526
O  O51  1  0.96090000  0.83290000  0.09762000  1.0 -0.662798526
O  O52  1  0.66710000  0.46090000  0.59762000  1.0 -0.662798526
O  O53  1  0.53910000  0.33290000  0.40238000  1.0 -0.662798526
O  O54  1  0.46090000  0.66710000  0.40238000  1.0 -0.662798526
O  O55  1  0.16710000  0.03910000  0.90238000  1.0 -0.662798526
O  O56  1  0.83290000  0.96090000  0.90238000  1.0 -0.662798526
O  O57  1  0.95680000  0.08940000  0.12021000  1.0 -0.5229208787
O  O58  1  0.41060000  0.45680000  0.62021000  1.0 -0.5229208787
O  O59  1  0.04320000  0.91060000  0.12021000  1.0 -0.5229208787
O  O60  1  0.58940000  0.54320000  0.62021000  1.0 -0.5229208787
O  O61  1  0.45680000  0.41060000  0.37979000  1.0 -0.5229208787
O  O62  1  0.54320000  0.58940000  0.37979000  1.0 -0.5229208787
O  O63  1  0.08940000  0.95680000  0.87979000  1.0 -0.5229208787
O  O64  1  0.91060000  0.04320000  0.87979000  1.0 -0.5229208787
O  O65  1  0.80150000  0.76600000  0.03245000  1.0 -0.446026413
O  O66  1  0.73400000  0.30150000  0.53245000  1.0 -0.446026413
O  O67  1  0.19850000  0.23400000  0.03245000  1.0 -0.446026413
O  O68  1  0.26600000  0.69850000  0.53245000  1.0 -0.446026413
O  O69  1  0.30150000  0.73400000  0.46755000  1.0 -0.446026413
O  O70  1  0.69850000  0.26600000  0.46755000  1.0 -0.446026413
O  O71  1  0.76600000  0.80150000  0.96755000  1.0 -0.446026413
O  O72  1  0.23400000  0.19850000  0.96755000  1.0 -0.446026413
O  O73  1  0.69850000  0.43970000  0.42709000  1.0 -0.542213144
O  O74  1  0.06030000  0.19850000  0.92709000  1.0 -0.542213144
O  O75  1  0.30150000  0.56030000  0.42709000  1.0 -0.542213144
O  O76  1  0.93970000  0.80150000  0.92709000  1.0 -0.542213144
O  O77  1  0.19850000  0.06030000  0.07291000  1.0 -0.542213144
O  O78  1  0.80150000  0.93970000  0.07291000  1.0 -0.542213144
O  O79  1  0.43970000  0.69850000  0.57291000  1.0 -0.542213144
O  O80  1  0.56030000  0.30150000  0.57291000  1.0 -0.542213144
