# DDEC6 charges by PACMAN v1.1 (https://github.com/mtap-research/PACMAN-charge/)
data_ja512311a_si_014_FSR_pacman
_symmetry_space_group_name_H-M   'P 1'
_cell_length_a   24.36000000
_cell_length_b   24.36000000
_cell_length_c   16.90900000
_cell_angle_alpha   90.00000000
_cell_angle_beta   90.00000000
_cell_angle_gamma   90.00000000
_symmetry_Int_Tables_number   1
_chemical_formula_structural   Zn4H36C54N6O13
_chemical_formula_sum   'Zn8 H72 C108 N12 O26'
_cell_volume   10033.96292640
_cell_formula_units_Z   2
loop_
 _symmetry_equiv_pos_site_id
 _symmetry_equiv_pos_as_xyz
  1  'x, y, z'
loop_
 _atom_site_type_symbol
 _atom_site_label
 _atom_site_symmetry_multiplicity
 _atom_site_fract_x
 _atom_site_fract_y
 _atom_site_fract_z
 _atom_site_occupancy
 _atom_site_charge
Zn  Zn1  1  0.92350000  0.01618000  0.50000000  0.5 0.5078970538
Zn  Zn2  1  0.07650000  0.98382000  0.50000000  0.5 0.5078970538
Zn  Zn3  1  0.51618000  0.57650000  0.00000000  0.5 0.5078970538
Zn  Zn4  1  0.48382000  0.42350000  0.00000000  0.5 0.5078970538
Zn  Zn5  1  0.42350000  0.48382000  0.00000000  0.5 0.5078970538
Zn  Zn6  1  0.57650000  0.51618000  0.00000000  0.5 0.5078970538
Zn  Zn7  1  0.01618000  0.92350000  0.50000000  0.5 0.5078970538
Zn  Zn8  1  0.98382000  0.07650000  0.50000000  0.5 0.5078970538
Zn  Zn9  1  0.96160000  0.96160000  0.59089000  0.5 0.5271548973
Zn  Zn10  1  0.03840000  0.03840000  0.59089000  0.5 0.5271548973
Zn  Zn11  1  0.46160000  0.53840000  0.09089000  0.5 0.5271548973
Zn  Zn12  1  0.53840000  0.46160000  0.09089000  0.5 0.5271548973
Zn  Zn13  1  0.46160000  0.53840000  0.90911000  0.5 0.5271548973
Zn  Zn14  1  0.53840000  0.46160000  0.90911000  0.5 0.5271548973
Zn  Zn15  1  0.96160000  0.96160000  0.40911000  0.5 0.5271548973
Zn  Zn16  1  0.03840000  0.03840000  0.40911000  0.5 0.5271548973
H  H1  1  0.87900000  0.12100000  0.00000000  1.0 0.1273515017
H  H2  1  0.12100000  0.87900000  0.00000000  1.0 0.1273515017
H  H3  1  0.62100000  0.62100000  0.50000000  1.0 0.1273515017
H  H4  1  0.37900000  0.37900000  0.50000000  1.0 0.1273515017
H  H5  1  0.77980000  0.22020000  0.88220000  1.0 0.1225988481
H  H6  1  0.22020000  0.77980000  0.88220000  1.0 0.1225988481
H  H7  1  0.72020000  0.72020000  0.38220000  1.0 0.1273515017
H  H8  1  0.27980000  0.27980000  0.38220000  1.0 0.1273515017
H  H9  1  0.27980000  0.27980000  0.61780000  1.0 0.1273515017
H  H10  1  0.72020000  0.72020000  0.61780000  1.0 0.1273515017
H  H11  1  0.22020000  0.77980000  0.11780000  1.0 0.1273515017
H  H12  1  0.77980000  0.22020000  0.11780000  1.0 0.1273515017
H  H13  1  0.79290000  0.37480000  0.88770000  0.25 0.2525172541
H  H14  1  0.20710000  0.62520000  0.88770000  0.25 0.2525172541
H  H15  1  0.87480000  0.70710000  0.38770000  0.25 0.2525172541
H  H16  1  0.12520000  0.29290000  0.38770000  0.25 0.2525172541
H  H17  1  0.29290000  0.12520000  0.61230000  0.25 0.2525172541
H  H18  1  0.70710000  0.87480000  0.61230000  0.25 0.2525172541
H  H19  1  0.37480000  0.79290000  0.11230000  0.25 0.2525172541
H  H20  1  0.62520000  0.20710000  0.11230000  0.25 0.2525172541
H  H21  1  0.20710000  0.62520000  0.11230000  0.25 0.2525172541
H  H22  1  0.79290000  0.37480000  0.11230000  0.25 0.2525172541
H  H23  1  0.12520000  0.29290000  0.61230000  0.25 0.2525172541
H  H24  1  0.87480000  0.70710000  0.61230000  0.25 0.2525172541
H  H25  1  0.70710000  0.87480000  0.38770000  0.25 0.2525172541
H  H26  1  0.29290000  0.12520000  0.38770000  0.25 0.2525172541
H  H27  1  0.62520000  0.20710000  0.88770000  0.25 0.2525172541
H  H28  1  0.37480000  0.79290000  0.88770000  0.25 0.2525172541
H  H29  1  0.82190000  0.32220000  0.90930000  0.25 0.1630320204
H  H30  1  0.17810000  0.67780000  0.90930000  0.25 0.1630320204
H  H31  1  0.82220000  0.67810000  0.40930000  0.25 0.1630320204
H  H32  1  0.17780000  0.32190000  0.40930000  0.25 0.1630320204
H  H33  1  0.32190000  0.17780000  0.59070000  0.25 0.1630320204
H  H34  1  0.67810000  0.82220000  0.59070000  0.25 0.1630320204
H  H35  1  0.32220000  0.82190000  0.09070000  0.25 0.1630320204
H  H36  1  0.67780000  0.17810000  0.09070000  0.25 0.1630320204
H  H37  1  0.17810000  0.67780000  0.09070000  0.25 0.1630320204
H  H38  1  0.82190000  0.32220000  0.09070000  0.25 0.1630320204
H  H39  1  0.17780000  0.32190000  0.59070000  0.25 0.1630320204
H  H40  1  0.82220000  0.67810000  0.59070000  0.25 0.1630320204
H  H41  1  0.67810000  0.82220000  0.40930000  0.25 0.1630320204
H  H42  1  0.32190000  0.17780000  0.40930000  0.25 0.1630320204
H  H43  1  0.67780000  0.17810000  0.90930000  0.25 0.1630320204
H  H44  1  0.32220000  0.82190000  0.90930000  0.25 0.1630320204
H  H45  1  0.77230000  0.32810000  0.93300000  0.25 0.1115111404
H  H46  1  0.22770000  0.67190000  0.93300000  0.25 0.1115111404
H  H47  1  0.82810000  0.72770000  0.43300000  0.25 0.1115111404
H  H48  1  0.17190000  0.27230000  0.43300000  0.25 0.1115111404
H  H49  1  0.27230000  0.17190000  0.56700000  0.25 0.1115111404
H  H50  1  0.72770000  0.82810000  0.56700000  0.25 0.1115111404
H  H51  1  0.32810000  0.77230000  0.06700000  0.25 0.1115111404
H  H52  1  0.67190000  0.22770000  0.06700000  0.25 0.1115111404
H  H53  1  0.22770000  0.67190000  0.06700000  0.25 0.1115111404
H  H54  1  0.77230000  0.32810000  0.06700000  0.25 0.1115111404
H  H55  1  0.17190000  0.27230000  0.56700000  0.25 0.1115111404
H  H56  1  0.82810000  0.72770000  0.56700000  0.25 0.1115111404
H  H57  1  0.72770000  0.82810000  0.43300000  0.25 0.1115111404
H  H58  1  0.27230000  0.17190000  0.43300000  0.25 0.1115111404
H  H59  1  0.67190000  0.22770000  0.93300000  0.25 0.1115111404
H  H60  1  0.32810000  0.77230000  0.93300000  0.25 0.1115111404
H  H61  1  0.87240000  0.26200000  0.83390000  0.5 0.2811020883
H  H62  1  0.12760000  0.73800000  0.83390000  0.5 0.2811020883
H  H63  1  0.76200000  0.62760000  0.33390000  0.5 0.2811020883
H  H64  1  0.23800000  0.37240000  0.33390000  0.5 0.2811020883
H  H65  1  0.37240000  0.23800000  0.66610000  0.5 0.2811020883
H  H66  1  0.62760000  0.76200000  0.66610000  0.5 0.2811020883
H  H67  1  0.26200000  0.87240000  0.16610000  0.5 0.2811020883
H  H68  1  0.73800000  0.12760000  0.16610000  0.5 0.2811020883
H  H69  1  0.12760000  0.73800000  0.16610000  0.5 0.2811020883
H  H70  1  0.87240000  0.26200000  0.16610000  0.5 0.2811020883
H  H71  1  0.23800000  0.37240000  0.66610000  0.5 0.2811020883
H  H72  1  0.76200000  0.62760000  0.66610000  0.5 0.2811020883
H  H73  1  0.62760000  0.76200000  0.33390000  0.5 0.2811020883
H  H74  1  0.37240000  0.23800000  0.33390000  0.5 0.2811020883
H  H75  1  0.73800000  0.12760000  0.83390000  0.5 0.2811020883
H  H76  1  0.26200000  0.87240000  0.83390000  0.5 0.2811020883
H  H77  1  0.90410000  0.25840000  0.75760000  0.5 0.2900041835
H  H78  1  0.09590000  0.74160000  0.75760000  0.5 0.2900041835
H  H79  1  0.75840000  0.59590000  0.25760000  0.5 0.2900041835
H  H80  1  0.24160000  0.40410000  0.25760000  0.5 0.2900041835
H  H81  1  0.40410000  0.24160000  0.74240000  0.5 0.2900041835
H  H82  1  0.59590000  0.75840000  0.74240000  0.5 0.2900041835
H  H83  1  0.25840000  0.90410000  0.24240000  0.5 0.2900041835
H  H84  1  0.74160000  0.09590000  0.24240000  0.5 0.2900041835
H  H85  1  0.09590000  0.74160000  0.24240000  0.5 0.2900041835
H  H86  1  0.90410000  0.25840000  0.24240000  0.5 0.2900041835
H  H87  1  0.24160000  0.40410000  0.74240000  0.5 0.2900041835
H  H88  1  0.75840000  0.59590000  0.74240000  0.5 0.2900041835
H  H89  1  0.59590000  0.75840000  0.25760000  0.5 0.2900041835
H  H90  1  0.40410000  0.24160000  0.25760000  0.5 0.2900041835
H  H91  1  0.74160000  0.09590000  0.75760000  0.5 0.2900041835
H  H92  1  0.25840000  0.90410000  0.75760000  0.5 0.2900041835
H  H93  1  0.69910000  0.39430000  0.91930000  0.5 0.0921039926
H  H94  1  0.30090000  0.60570000  0.91930000  0.5 0.0921039926
H  H95  1  0.89430000  0.80090000  0.41930000  0.5 0.0921039926
H  H96  1  0.10570000  0.19910000  0.41930000  0.5 0.0921039926
H  H97  1  0.19910000  0.10570000  0.58070000  0.5 0.0921039926
H  H98  1  0.80090000  0.89430000  0.58070000  0.5 0.0921039926
H  H99  1  0.39430000  0.69910000  0.08070000  0.5 0.0921039926
H  H100  1  0.60570000  0.30090000  0.08070000  0.5 0.0921039926
H  H101  1  0.30090000  0.60570000  0.08070000  0.5 0.0921039926
H  H102  1  0.69910000  0.39430000  0.08070000  0.5 0.0921039926
H  H103  1  0.10570000  0.19910000  0.58070000  0.5 0.0921039926
H  H104  1  0.89430000  0.80090000  0.58070000  0.5 0.0921039926
H  H105  1  0.80090000  0.89430000  0.41930000  0.5 0.0921039926
H  H106  1  0.19910000  0.10570000  0.41930000  0.5 0.0921039926
H  H107  1  0.60570000  0.30090000  0.91930000  0.5 0.0921039926
H  H108  1  0.39430000  0.69910000  0.91930000  0.5 0.0921039926
H  H109  1  0.84090000  0.07100000  0.88390000  0.5 0.1115111404
H  H110  1  0.15910000  0.92900000  0.88390000  0.5 0.1115111404
H  H111  1  0.57100000  0.65910000  0.38390000  0.5 0.1115111404
H  H112  1  0.42900000  0.34090000  0.38390000  0.5 0.1115111404
H  H113  1  0.34090000  0.42900000  0.61610000  0.5 0.1115111404
H  H114  1  0.65910000  0.57100000  0.61610000  0.5 0.1115111404
H  H115  1  0.07100000  0.84090000  0.11610000  0.5 0.1115111404
H  H116  1  0.92900000  0.15910000  0.11610000  0.5 0.1115111404
H  H117  1  0.15910000  0.92900000  0.11610000  0.5 0.1115111404
H  H118  1  0.84090000  0.07100000  0.11610000  0.5 0.1115111404
H  H119  1  0.42900000  0.34090000  0.61610000  0.5 0.1115111404
H  H120  1  0.57100000  0.65910000  0.61610000  0.5 0.1115111404
H  H121  1  0.65910000  0.57100000  0.38390000  0.5 0.1115111404
H  H122  1  0.34090000  0.42900000  0.38390000  0.5 0.1115111404
H  H123  1  0.92900000  0.15910000  0.88390000  0.5 0.1115111404
H  H124  1  0.07100000  0.84090000  0.88390000  0.5 0.1115111404
H  H125  1  0.87890000  0.02590000  0.76530000  0.5 0.1225988481
H  H126  1  0.12110000  0.97410000  0.76530000  0.5 0.1225988481
H  H127  1  0.52590000  0.62110000  0.26530000  0.5 0.1225988481
H  H128  1  0.47410000  0.37890000  0.26530000  0.5 0.1225988481
H  H129  1  0.37890000  0.47410000  0.73470000  0.5 0.1225988481
H  H130  1  0.62110000  0.52590000  0.73470000  0.5 0.1225988481
H  H131  1  0.02590000  0.87890000  0.23470000  0.5 0.1225988481
H  H132  1  0.97410000  0.12110000  0.23470000  0.5 0.1225988481
H  H133  1  0.12110000  0.97410000  0.23470000  0.5 0.1225988481
H  H134  1  0.87890000  0.02590000  0.23470000  0.5 0.1225988481
H  H135  1  0.47410000  0.37890000  0.73470000  0.5 0.1225988481
H  H136  1  0.52590000  0.62110000  0.73470000  0.5 0.1225988481
H  H137  1  0.62110000  0.52590000  0.26530000  0.5 0.1225988481
H  H138  1  0.37890000  0.47410000  0.26530000  0.5 0.1225988481
H  H139  1  0.97410000  0.12110000  0.76530000  0.5 0.1225988481
H  H140  1  0.02590000  0.87890000  0.76530000  0.5 0.1225988481
H  H141  1  0.91900000  0.18000000  0.68230000  0.5 0.1115111404
H  H142  1  0.08100000  0.82000000  0.68230000  0.5 0.1115111404
H  H143  1  0.68000000  0.58100000  0.18230000  0.5 0.1115111404
H  H144  1  0.32000000  0.41900000  0.18230000  0.5 0.1115111404
H  H145  1  0.41900000  0.32000000  0.81770000  0.5 0.1115111404
H  H146  1  0.58100000  0.68000000  0.81770000  0.5 0.1115111404
H  H147  1  0.18000000  0.91900000  0.31770000  0.5 0.1115111404
H  H148  1  0.82000000  0.08100000  0.31770000  0.5 0.1115111404
H  H149  1  0.08100000  0.82000000  0.31770000  0.5 0.1115111404
H  H150  1  0.91900000  0.18000000  0.31770000  0.5 0.1115111404
H  H151  1  0.32000000  0.41900000  0.81770000  0.5 0.1115111404
H  H152  1  0.68000000  0.58100000  0.81770000  0.5 0.1115111404
H  H153  1  0.58100000  0.68000000  0.18230000  0.5 0.1115111404
H  H154  1  0.41900000  0.32000000  0.18230000  0.5 0.1115111404
H  H155  1  0.82000000  0.08100000  0.68230000  0.5 0.1115111404
H  H156  1  0.18000000  0.91900000  0.68230000  0.5 0.1115111404
C  C1  1  0.85170000  0.14830000  0.00000000  1.0 -0.1925400188
C  C2  1  0.14830000  0.85170000  0.00000000  1.0 -0.1925400188
C  C3  1  0.64830000  0.64830000  0.50000000  1.0 -0.1925400188
C  C4  1  0.35170000  0.35170000  0.50000000  1.0 -0.1925400188
C  C5  1  0.83320000  0.16680000  0.93090000  1.0 0.0477988375
C  C6  1  0.16680000  0.83320000  0.93090000  1.0 0.0477988375
C  C7  1  0.66680000  0.66680000  0.43090000  1.0 0.0477988375
C  C8  1  0.33320000  0.33320000  0.43090000  1.0 0.0477988375
C  C9  1  0.33320000  0.33320000  0.56910000  1.0 0.0477988375
C  C10  1  0.66680000  0.66680000  0.56910000  1.0 0.0477988375
C  C11  1  0.16680000  0.83320000  0.06910000  1.0 0.0477988375
C  C12  1  0.83320000  0.16680000  0.06910000  1.0 0.0477988375
C  C13  1  0.79330000  0.20670000  0.93050000  1.0 -0.2442558212
C  C14  1  0.20670000  0.79330000  0.93050000  1.0 -0.2456157906
C  C15  1  0.70670000  0.70670000  0.43050000  1.0 -0.2456157906
C  C16  1  0.29330000  0.29330000  0.43050000  1.0 -0.2456157906
C  C17  1  0.29330000  0.29330000  0.56950000  1.0 -0.2442558212
C  C18  1  0.70670000  0.70670000  0.56950000  1.0 -0.2442558212
C  C19  1  0.20670000  0.79330000  0.06950000  1.0 -0.2456157906
C  C20  1  0.79330000  0.20670000  0.06950000  1.0 -0.2456157906
C  C21  1  0.77350000  0.22650000  0.00000000  1.0 0.0664586657
C  C22  1  0.22650000  0.77350000  0.00000000  1.0 0.0664586657
C  C23  1  0.72650000  0.72650000  0.50000000  1.0 0.0664586657
C  C24  1  0.27350000  0.27350000  0.50000000  1.0 0.0664586657
C  C25  1  0.72790000  0.27210000  0.00000000  1.0 0.0341673726
C  C26  1  0.27210000  0.72790000  0.00000000  1.0 0.0341673726
C  C27  1  0.77210000  0.77210000  0.50000000  1.0 0.0341673726
C  C28  1  0.22790000  0.22790000  0.50000000  1.0 0.0341673726
C  C29  1  0.64730000  0.35270000  0.00000000  1.0 -0.0275859195
C  C30  1  0.35270000  0.64730000  0.00000000  1.0 -0.0275859195
C  C31  1  0.85270000  0.85270000  0.50000000  1.0 -0.0275859195
C  C32  1  0.14730000  0.14730000  0.50000000  1.0 -0.0275859195
C  C33  1  0.60610000  0.39390000  0.00000000  1.0 0.3726244168
C  C34  1  0.39390000  0.60610000  0.00000000  1.0 0.3726244168
C  C35  1  0.89390000  0.89390000  0.50000000  1.0 0.3726244168
C  C36  1  0.10610000  0.10610000  0.50000000  1.0 0.3726244168
C  C37  1  0.85300000  0.14700000  0.85290000  1.0 0.009789459
C  C38  1  0.14700000  0.85300000  0.85290000  1.0 0.009789459
C  C39  1  0.64700000  0.64700000  0.35290000  1.0 0.009789459
C  C40  1  0.35300000  0.35300000  0.35290000  1.0 0.009789459
C  C41  1  0.35300000  0.35300000  0.64710000  1.0 0.009789459
C  C42  1  0.64700000  0.64700000  0.64710000  1.0 0.009789459
C  C43  1  0.14700000  0.85300000  0.14710000  1.0 0.009789459
C  C44  1  0.85300000  0.14700000  0.14710000  1.0 0.009789459
C  C45  1  0.92760000  0.07240000  0.64110000  1.0 0.3607700551
C  C46  1  0.07240000  0.92760000  0.64110000  1.0 0.3607700551
C  C47  1  0.57240000  0.57240000  0.14110000  1.0 0.3607700551
C  C48  1  0.42760000  0.42760000  0.14110000  1.0 0.3607700551
C  C49  1  0.42760000  0.42760000  0.85890000  1.0 0.3607700551
C  C50  1  0.57240000  0.57240000  0.85890000  1.0 0.3607700551
C  C51  1  0.07240000  0.92760000  0.35890000  1.0 0.3607700551
C  C52  1  0.92760000  0.07240000  0.35890000  1.0 0.3607700551
C  C53  1  0.73750000  0.32170000  0.95770000  0.5 -0.0061110411
C  C54  1  0.26250000  0.67830000  0.95770000  0.5 -0.0061110411
C  C55  1  0.82170000  0.76250000  0.45770000  0.5 -0.0061110411
C  C56  1  0.17830000  0.23750000  0.45770000  0.5 -0.0061110411
C  C57  1  0.23750000  0.17830000  0.54230000  0.5 -0.0049432546
C  C58  1  0.76250000  0.82170000  0.54230000  0.5 -0.0049432546
C  C59  1  0.32170000  0.73750000  0.04230000  0.5 -0.0061110411
C  C60  1  0.67830000  0.26250000  0.04230000  0.5 -0.0061110411
C  C61  1  0.26250000  0.67830000  0.04230000  0.5 -0.0061110411
C  C62  1  0.73750000  0.32170000  0.04230000  0.5 -0.0061110411
C  C63  1  0.17830000  0.23750000  0.54230000  0.5 -0.0049432546
C  C64  1  0.82170000  0.76250000  0.54230000  0.5 -0.0049432546
C  C65  1  0.76250000  0.82170000  0.45770000  0.5 -0.0061110411
C  C66  1  0.23750000  0.17830000  0.45770000  0.5 -0.0061110411
C  C67  1  0.67830000  0.26250000  0.95770000  0.5 -0.0061110411
C  C68  1  0.32170000  0.73750000  0.95770000  0.5 -0.0061110411
C  C69  1  0.69560000  0.36320000  0.95170000  0.5 -0.1261692895
C  C70  1  0.30440000  0.63680000  0.95170000  0.5 -0.1261692895
C  C71  1  0.86320000  0.80440000  0.45170000  0.5 -0.1261692895
C  C72  1  0.13680000  0.19560000  0.45170000  0.5 -0.1261692895
C  C73  1  0.19560000  0.13680000  0.54830000  0.5 -0.1261692895
C  C74  1  0.80440000  0.86320000  0.54830000  0.5 -0.1261692895
C  C75  1  0.36320000  0.69560000  0.04830000  0.5 -0.1261692895
C  C76  1  0.63680000  0.30440000  0.04830000  0.5 -0.1261692895
C  C77  1  0.30440000  0.63680000  0.04830000  0.5 -0.1261692895
C  C78  1  0.69560000  0.36320000  0.04830000  0.5 -0.1261692895
C  C79  1  0.13680000  0.19560000  0.54830000  0.5 -0.1261692895
C  C80  1  0.86320000  0.80440000  0.54830000  0.5 -0.1261692895
C  C81  1  0.80440000  0.86320000  0.45170000  0.5 -0.1261692895
C  C82  1  0.19560000  0.13680000  0.45170000  0.5 -0.1261692895
C  C83  1  0.63680000  0.30440000  0.95170000  0.5 -0.1261692895
C  C84  1  0.36320000  0.69560000  0.95170000  0.5 -0.1261692895
C  C85  1  0.85520000  0.09310000  0.84320000  0.5 -0.1108454624
C  C86  1  0.14480000  0.90690000  0.84320000  0.5 -0.1108454624
C  C87  1  0.59310000  0.64480000  0.34320000  0.5 -0.1108454624
C  C88  1  0.40690000  0.35520000  0.34320000  0.5 -0.1108454624
C  C89  1  0.35520000  0.40690000  0.65680000  0.5 -0.1108454624
C  C90  1  0.64480000  0.59310000  0.65680000  0.5 -0.1108454624
C  C91  1  0.09310000  0.85520000  0.15680000  0.5 -0.1108454624
C  C92  1  0.90690000  0.14480000  0.15680000  0.5 -0.1108454624
C  C93  1  0.14480000  0.90690000  0.15680000  0.5 -0.1108454624
C  C94  1  0.85520000  0.09310000  0.15680000  0.5 -0.1108454624
C  C95  1  0.40690000  0.35520000  0.65680000  0.5 -0.1108454624
C  C96  1  0.59310000  0.64480000  0.65680000  0.5 -0.1108454624
C  C97  1  0.64480000  0.59310000  0.34320000  0.5 -0.1108454624
C  C98  1  0.35520000  0.40690000  0.34320000  0.5 -0.1108454624
C  C99  1  0.90690000  0.14480000  0.84320000  0.5 -0.1108454624
C  C100  1  0.09310000  0.85520000  0.84320000  0.5 -0.1108454624
C  C101  1  0.87930000  0.06430000  0.77110000  0.5 -0.0410723379
C  C102  1  0.12070000  0.93570000  0.77110000  0.5 -0.0410723379
C  C103  1  0.56430000  0.62070000  0.27110000  0.5 -0.0410723379
C  C104  1  0.43570000  0.37930000  0.27110000  0.5 -0.0410723379
C  C105  1  0.37930000  0.43570000  0.72890000  0.5 -0.0410723379
C  C106  1  0.62070000  0.56430000  0.72890000  0.5 -0.0410723379
C  C107  1  0.06430000  0.87930000  0.22890000  0.5 -0.0410723379
C  C108  1  0.93570000  0.12070000  0.22890000  0.5 -0.0410723379
C  C109  1  0.12070000  0.93570000  0.22890000  0.5 -0.0410723379
C  C110  1  0.87930000  0.06430000  0.22890000  0.5 -0.0410723379
C  C111  1  0.43570000  0.37930000  0.72890000  0.5 -0.0410723379
C  C112  1  0.56430000  0.62070000  0.72890000  0.5 -0.0410723379
C  C113  1  0.62070000  0.56430000  0.27110000  0.5 -0.0410723379
C  C114  1  0.37930000  0.43570000  0.27110000  0.5 -0.0410723379
C  C115  1  0.93570000  0.12070000  0.77110000  0.5 -0.0410723379
C  C116  1  0.06430000  0.87930000  0.77110000  0.5 -0.0410723379
C  C117  1  0.90260000  0.10030000  0.71270000  0.5 0.009789459
C  C118  1  0.09740000  0.89970000  0.71270000  0.5 0.009789459
C  C119  1  0.60030000  0.59740000  0.21270000  0.5 0.009789459
C  C120  1  0.39970000  0.40260000  0.21270000  0.5 0.009789459
C  C121  1  0.40260000  0.39970000  0.78730000  0.5 0.009789459
C  C122  1  0.59740000  0.60030000  0.78730000  0.5 0.009789459
C  C123  1  0.10030000  0.90260000  0.28730000  0.5 0.009789459
C  C124  1  0.89970000  0.09740000  0.28730000  0.5 0.009789459
C  C125  1  0.09740000  0.89970000  0.28730000  0.5 0.009789459
C  C126  1  0.90260000  0.10030000  0.28730000  0.5 0.009789459
C  C127  1  0.39970000  0.40260000  0.78730000  0.5 0.009789459
C  C128  1  0.60030000  0.59740000  0.78730000  0.5 0.009789459
C  C129  1  0.59740000  0.60030000  0.21270000  0.5 0.009789459
C  C130  1  0.40260000  0.39970000  0.21270000  0.5 0.009789459
C  C131  1  0.89970000  0.09740000  0.71270000  0.5 0.009789459
C  C132  1  0.10030000  0.90260000  0.71270000  0.5 0.009789459
C  C133  1  0.90390000  0.15720000  0.72160000  0.5 -0.0940138577
C  C134  1  0.09610000  0.84280000  0.72160000  0.5 -0.0940138577
C  C135  1  0.65720000  0.59610000  0.22160000  0.5 -0.0961483447
C  C136  1  0.34280000  0.40390000  0.22160000  0.5 -0.0961483447
C  C137  1  0.40390000  0.34280000  0.77840000  0.5 -0.0961483447
C  C138  1  0.59610000  0.65720000  0.77840000  0.5 -0.0961483447
C  C139  1  0.15720000  0.90390000  0.27840000  0.5 -0.0961483447
C  C140  1  0.84280000  0.09610000  0.27840000  0.5 -0.0961483447
C  C141  1  0.09610000  0.84280000  0.27840000  0.5 -0.0961483447
C  C142  1  0.90390000  0.15720000  0.27840000  0.5 -0.0961483447
C  C143  1  0.34280000  0.40390000  0.77840000  0.5 -0.0961483447
C  C144  1  0.65720000  0.59610000  0.77840000  0.5 -0.0961483447
C  C145  1  0.59610000  0.65720000  0.22160000  0.5 -0.0961483447
C  C146  1  0.40390000  0.34280000  0.22160000  0.5 -0.0961483447
C  C147  1  0.84280000  0.09610000  0.72160000  0.5 -0.0940138577
C  C148  1  0.15720000  0.90390000  0.72160000  0.5 -0.0940138577
C  C149  1  0.88010000  0.18080000  0.79650000  0.5 0.1115111404
C  C150  1  0.11990000  0.81920000  0.79650000  0.5 0.1115111404
C  C151  1  0.68080000  0.61990000  0.29650000  0.5 0.1115111404
C  C152  1  0.31920000  0.38010000  0.29650000  0.5 0.1115111404
C  C153  1  0.38010000  0.31920000  0.70350000  0.5 0.1115111404
C  C154  1  0.61990000  0.68080000  0.70350000  0.5 0.1115111404
C  C155  1  0.18080000  0.88010000  0.20350000  0.5 0.1115111404
C  C156  1  0.81920000  0.11990000  0.20350000  0.5 0.1115111404
C  C157  1  0.11990000  0.81920000  0.20350000  0.5 0.1115111404
C  C158  1  0.88010000  0.18080000  0.20350000  0.5 0.1115111404
C  C159  1  0.31920000  0.38010000  0.70350000  0.5 0.1115111404
C  C160  1  0.68080000  0.61990000  0.70350000  0.5 0.1115111404
C  C161  1  0.61990000  0.68080000  0.29650000  0.5 0.1115111404
C  C162  1  0.38010000  0.31920000  0.29650000  0.5 0.1115111404
C  C163  1  0.81920000  0.11990000  0.79650000  0.5 0.1115111404
C  C164  1  0.18080000  0.88010000  0.79650000  0.5 0.1115111404
N  N1  1  0.79280000  0.34290000  0.91090000  0.25 -0.5509342728
N  N2  1  0.20720000  0.65710000  0.91090000  0.25 -0.5509342728
N  N3  1  0.84290000  0.70720000  0.41090000  0.25 -0.5509342728
N  N4  1  0.15710000  0.29280000  0.41090000  0.25 -0.5509342728
N  N5  1  0.29280000  0.15710000  0.58910000  0.25 -0.5509342728
N  N6  1  0.70720000  0.84290000  0.58910000  0.25 -0.5509342728
N  N7  1  0.34290000  0.79280000  0.08910000  0.25 -0.5509342728
N  N8  1  0.65710000  0.20720000  0.08910000  0.25 -0.5509342728
N  N9  1  0.20720000  0.65710000  0.08910000  0.25 -0.5509342728
N  N10  1  0.79280000  0.34290000  0.08910000  0.25 -0.5509342728
N  N11  1  0.15710000  0.29280000  0.58910000  0.25 -0.5509342728
N  N12  1  0.84290000  0.70720000  0.58910000  0.25 -0.5509342728
N  N13  1  0.70720000  0.84290000  0.41090000  0.25 -0.5509342728
N  N14  1  0.29280000  0.15710000  0.41090000  0.25 -0.5509342728
N  N15  1  0.65710000  0.20720000  0.91090000  0.25 -0.5509342728
N  N16  1  0.34290000  0.79280000  0.91090000  0.25 -0.5509342728
N  N17  1  0.88650000  0.24240000  0.79590000  0.5 -0.6268051146
N  N18  1  0.11350000  0.75760000  0.79590000  0.5 -0.6268051146
N  N19  1  0.74240000  0.61350000  0.29590000  0.5 -0.6268051146
N  N20  1  0.25760000  0.38650000  0.29590000  0.5 -0.6268051146
N  N21  1  0.38650000  0.25760000  0.70410000  0.5 -0.6268051146
N  N22  1  0.61350000  0.74240000  0.70410000  0.5 -0.6268051146
N  N23  1  0.24240000  0.88650000  0.20410000  0.5 -0.6268051146
N  N24  1  0.75760000  0.11350000  0.20410000  0.5 -0.6268051146
N  N25  1  0.11350000  0.75760000  0.20410000  0.5 -0.6268051146
N  N26  1  0.88650000  0.24240000  0.20410000  0.5 -0.6268051146
N  N27  1  0.25760000  0.38650000  0.70410000  0.5 -0.6268051146
N  N28  1  0.74240000  0.61350000  0.70410000  0.5 -0.6268051146
N  N29  1  0.61350000  0.74240000  0.29590000  0.5 -0.6268051146
N  N30  1  0.38650000  0.25760000  0.29590000  0.5 -0.6268051146
N  N31  1  0.75760000  0.11350000  0.79590000  0.5 -0.6268051146
N  N32  1  0.24240000  0.88650000  0.79590000  0.5 -0.6268051146
O  O1  1  0.00000000  0.00000000  0.50000000  1.0 -0.6813936187
O  O2  1  0.50000000  0.50000000  0.00000000  1.0 -0.6813936187
O  O3  1  0.89260000  0.05130000  0.58870000  0.5 -0.264343409
O  O4  1  0.10740000  0.94870000  0.58870000  0.5 -0.264343409
O  O5  1  0.55130000  0.60740000  0.08870000  0.5 -0.2656463338
O  O6  1  0.44870000  0.39260000  0.08870000  0.5 -0.2656463338
O  O7  1  0.39260000  0.44870000  0.91130000  0.5 -0.264343409
O  O8  1  0.60740000  0.55130000  0.91130000  0.5 -0.264343409
O  O9  1  0.05130000  0.89260000  0.41130000  0.5 -0.2656463338
O  O10  1  0.94870000  0.10740000  0.41130000  0.5 -0.264343409
O  O11  1  0.10740000  0.94870000  0.41130000  0.5 -0.2656463338
O  O12  1  0.89260000  0.05130000  0.41130000  0.5 -0.264343409
O  O13  1  0.44870000  0.39260000  0.91130000  0.5 -0.264343409
O  O14  1  0.55130000  0.60740000  0.91130000  0.5 -0.264343409
O  O15  1  0.60740000  0.55130000  0.08870000  0.5 -0.2656463338
O  O16  1  0.39260000  0.44870000  0.08870000  0.5 -0.2656463338
O  O17  1  0.94870000  0.10740000  0.58870000  0.5 -0.264343409
O  O18  1  0.05130000  0.89260000  0.58870000  0.5 -0.264343409
O  O19  1  0.92470000  0.01770000  0.64400000  0.5 -0.2976674671
O  O20  1  0.07530000  0.98230000  0.64400000  0.5 -0.2976674671
O  O21  1  0.51770000  0.57530000  0.14400000  0.5 -0.2976674671
O  O22  1  0.48230000  0.42470000  0.14400000  0.5 -0.2976674671
O  O23  1  0.42470000  0.48230000  0.85600000  0.5 -0.2976674671
O  O24  1  0.57530000  0.51770000  0.85600000  0.5 -0.2976674671
O  O25  1  0.01770000  0.92470000  0.35600000  0.5 -0.2976674671
O  O26  1  0.98230000  0.07530000  0.35600000  0.5 -0.2976674671
O  O27  1  0.07530000  0.98230000  0.35600000  0.5 -0.2976674671
O  O28  1  0.92470000  0.01770000  0.35600000  0.5 -0.2976674671
O  O29  1  0.48230000  0.42470000  0.85600000  0.5 -0.2976674671
O  O30  1  0.51770000  0.57530000  0.85600000  0.5 -0.2976674671
O  O31  1  0.57530000  0.51770000  0.14400000  0.5 -0.2976674671
O  O32  1  0.42470000  0.48230000  0.14400000  0.5 -0.2976674671
O  O33  1  0.98230000  0.07530000  0.64400000  0.5 -0.2976674671
O  O34  1  0.01770000  0.92470000  0.64400000  0.5 -0.2976674671
O  O35  1  0.58770000  0.41230000  0.06930000  0.5 -0.2188758953
O  O36  1  0.41230000  0.58770000  0.06930000  0.5 -0.2188758953
O  O37  1  0.91230000  0.91230000  0.56930000  0.5 -0.2188758953
O  O38  1  0.08770000  0.08770000  0.56930000  0.5 -0.2188758953
O  O39  1  0.08770000  0.08770000  0.43070000  0.5 -0.2188758953
O  O40  1  0.91230000  0.91230000  0.43070000  0.5 -0.2188758953
O  O41  1  0.41230000  0.58770000  0.93070000  0.5 -0.2188758953
O  O42  1  0.58770000  0.41230000  0.93070000  0.5 -0.2188758953
O  O43  1  0.55190000  0.38590000  0.00000000  0.5 -0.2103468282
O  O44  1  0.44810000  0.61410000  0.00000000  0.5 -0.2103468282
O  O45  1  0.88590000  0.94810000  0.50000000  0.5 -0.2103468282
O  O46  1  0.11410000  0.05190000  0.50000000  0.5 -0.2103468282
O  O47  1  0.05190000  0.11410000  0.50000000  0.5 -0.2103468282
O  O48  1  0.94810000  0.88590000  0.50000000  0.5 -0.2103468282
O  O49  1  0.38590000  0.55190000  0.00000000  0.5 -0.2103468282
O  O50  1  0.61410000  0.44810000  0.00000000  0.5 -0.2103468282
