# DDEC6 charges by PACMAN v1.1 (https://github.com/mtap-research/PACMAN-charge/)
data_aav4119_data_file_s1_ASR_pacman
_symmetry_space_group_name_H-M   'P 1'
_cell_length_a   29.91500000
_cell_length_b   29.91500000
_cell_length_c   34.37800000
_cell_angle_alpha   90.00000000
_cell_angle_beta   90.00000000
_cell_angle_gamma   90.00000000
_symmetry_Int_Tables_number   1
_chemical_formula_structural   Zn44.0H332.8C632N59.2O120
_chemical_formula_sum   'Zn44.0 H332.8 C632 N59.2 O120'
_cell_volume   30765.12058105
_cell_formula_units_Z   1
loop_
 _symmetry_equiv_pos_site_id
 _symmetry_equiv_pos_as_xyz
  1  'x, y, z'
loop_
 _atom_site_type_symbol
 _atom_site_label
 _atom_site_symmetry_multiplicity
 _atom_site_fract_x
 _atom_site_fract_y
 _atom_site_fract_z
 _atom_site_occupancy
 _atom_site_charge
Zn  Zn1  1  0.33957000  0.90830000  0.72682000  1.0 1.0170940868
Zn  Zn2  1  0.66043000  0.09170000  0.72682000  1.0 1.0170940868
Zn  Zn3  1  0.09170000  0.33957000  0.72682000  1.0 1.0170940868
Zn  Zn4  1  0.90830000  0.66043000  0.72682000  1.0 1.0170940868
Zn  Zn5  1  0.16043000  0.40830000  0.77318000  1.0 1.0170940868
Zn  Zn6  1  0.83957000  0.59170000  0.77318000  1.0 1.0170940868
Zn  Zn7  1  0.40830000  0.83957000  0.77318000  1.0 1.0170940868
Zn  Zn8  1  0.59170000  0.16043000  0.77318000  1.0 1.0170940868
Zn  Zn9  1  0.66043000  0.09170000  0.27318000  1.0 1.0140739314
Zn  Zn10  1  0.33957000  0.90830000  0.27318000  1.0 1.0170940868
Zn  Zn11  1  0.90830000  0.66043000  0.27318000  1.0 1.0140739314
Zn  Zn12  1  0.09170000  0.33957000  0.27318000  1.0 1.0170940868
Zn  Zn13  1  0.83957000  0.59170000  0.22682000  1.0 1.0140739314
Zn  Zn14  1  0.16043000  0.40830000  0.22682000  1.0 1.0140739314
Zn  Zn15  1  0.59170000  0.16043000  0.22682000  1.0 1.0140739314
Zn  Zn16  1  0.40830000  0.83957000  0.22682000  1.0 1.0140739314
Zn  Zn17  1  0.00000000  0.00000000  0.83478000  1.0 0.6071450046
Zn  Zn18  1  0.50000000  0.50000000  0.66522000  1.0 0.6071450046
Zn  Zn19  1  0.00000000  0.00000000  0.16522000  1.0 0.6071450046
Zn  Zn20  1  0.50000000  0.50000000  0.33478000  1.0 0.6071450046
Zn  Zn21  1  0.29711000  0.17293000  0.50000000  1.0 0.6309352747
Zn  Zn22  1  0.70289000  0.82707000  0.50000000  1.0 0.6309352747
Zn  Zn23  1  0.82707000  0.29711000  0.50000000  1.0 0.6309352747
Zn  Zn24  1  0.17293000  0.70289000  0.50000000  1.0 0.6309352747
Zn  Zn25  1  0.20289000  0.67293000  0.00000000  1.0 0.6309352747
Zn  Zn26  1  0.79711000  0.32707000  0.00000000  1.0 0.6309352747
Zn  Zn27  1  0.67293000  0.79711000  0.00000000  1.0 0.6309352747
Zn  Zn28  1  0.32707000  0.20289000  0.00000000  1.0 0.6309352747
Zn  Zn29  1  0.24487000  0.94658000  0.66573000  0.45 0.5221503906
Zn  Zn30  1  0.75513000  0.05342000  0.66573000  0.45 0.5296424053
Zn  Zn31  1  0.05342000  0.24487000  0.66573000  0.45 0.5296424053
Zn  Zn32  1  0.94658000  0.75513000  0.66573000  0.45 0.5221503906
Zn  Zn33  1  0.25513000  0.44658000  0.83427000  0.45 0.5221503906
Zn  Zn34  1  0.74487000  0.55342000  0.83427000  0.45 0.5221503906
Zn  Zn35  1  0.44658000  0.74487000  0.83427000  0.45 0.5221503906
Zn  Zn36  1  0.55342000  0.25513000  0.83427000  0.45 0.5221503906
Zn  Zn37  1  0.75513000  0.05342000  0.33427000  0.45 0.5221503906
Zn  Zn38  1  0.24487000  0.94658000  0.33427000  0.45 0.5296424053
Zn  Zn39  1  0.94658000  0.75513000  0.33427000  0.45 0.5221503906
Zn  Zn40  1  0.05342000  0.24487000  0.33427000  0.45 0.5296424053
Zn  Zn41  1  0.74487000  0.55342000  0.16573000  0.45 0.5221503906
Zn  Zn42  1  0.25513000  0.44658000  0.16573000  0.45 0.5296424053
Zn  Zn43  1  0.55342000  0.25513000  0.16573000  0.45 0.5221503906
Zn  Zn44  1  0.44658000  0.74487000  0.16573000  0.45 0.5296424053
Zn  Zn45  1  0.24166000  0.91591000  0.67624000  0.55 0.5296424053
Zn  Zn46  1  0.75834000  0.08409000  0.67624000  0.55 0.5221503906
Zn  Zn47  1  0.08409000  0.24166000  0.67624000  0.55 0.5221503906
Zn  Zn48  1  0.91591000  0.75834000  0.67624000  0.55 0.5296424053
Zn  Zn49  1  0.25834000  0.41591000  0.82376000  0.55 0.5296424053
Zn  Zn50  1  0.74166000  0.58409000  0.82376000  0.55 0.5296424053
Zn  Zn51  1  0.41591000  0.74166000  0.82376000  0.55 0.5296424053
Zn  Zn52  1  0.58409000  0.25834000  0.82376000  0.55 0.5296424053
Zn  Zn53  1  0.75834000  0.08409000  0.32376000  0.55 0.5296424053
Zn  Zn54  1  0.24166000  0.91591000  0.32376000  0.55 0.5296424053
Zn  Zn55  1  0.91591000  0.75834000  0.32376000  0.55 0.5296424053
Zn  Zn56  1  0.08409000  0.24166000  0.32376000  0.55 0.5296424053
Zn  Zn57  1  0.74166000  0.58409000  0.17624000  0.55 0.5296424053
Zn  Zn58  1  0.25834000  0.41591000  0.17624000  0.55 0.5296424053
Zn  Zn59  1  0.58409000  0.25834000  0.17624000  0.55 0.5296424053
Zn  Zn60  1  0.41591000  0.74166000  0.17624000  0.55 0.5296424053
H  H1  1  0.06380000  0.84110000  0.82070000  1.0 0.129581278
H  H2  1  0.13110000  0.88850000  0.82300000  1.0 0.129581278
H  H3  1  0.17050000  0.99440000  0.88270000  1.0 0.1199193776
H  H4  1  0.24770000  0.98240000  0.88590000  1.0 0.1199193776
H  H5  1  0.28620000  0.95640000  0.83110000  1.0 0.129581278
H  H6  1  0.17040000  0.95460000  0.77010000  1.0 0.129581278
H  H7  1  0.36200000  0.78350000  0.67810000  1.0 0.1199193776
H  H8  1  0.37230000  0.71890000  0.64080000  1.0 0.1102177402
H  H9  1  0.32110000  0.70080000  0.59180000  1.0 0.1199193776
H  H10  1  0.24930000  0.81180000  0.61740000  1.0 0.129581278
H  H11  1  0.41630000  0.00040000  0.67320000  1.0 0.129581278
H  H12  1  0.45680000  0.05510000  0.63960000  1.0 0.1199193776
H  H13  1  0.42090000  0.10050000  0.59380000  1.0 0.1199193776
H  H14  1  0.30400000  0.03660000  0.61530000  1.0 0.129581278
H  H15  1  0.38070000  0.02810000  0.53510000  1.0 0.129581278
H  H16  1  0.32080000  0.14030000  0.64460000  1.0 0.129581278
H  H17  1  0.28240000  0.21540000  0.64550000  1.0 0.1199193776
H  H18  1  0.21840000  0.31940000  0.53490000  1.0 0.129581278
H  H19  1  0.93620000  0.15890000  0.82070000  1.0 0.129581278
H  H20  1  0.86890000  0.11150000  0.82300000  1.0 0.129581278
H  H21  1  0.82950000  0.00560000  0.88270000  1.0 0.1199193776
H  H22  1  0.75230000  0.01760000  0.88590000  1.0 0.1199193776
H  H23  1  0.71380000  0.04360000  0.83110000  1.0 0.129581278
H  H24  1  0.82960000  0.04540000  0.77010000  1.0 0.129581278
H  H25  1  0.63800000  0.21650000  0.67810000  1.0 0.1199193776
H  H26  1  0.62770000  0.28110000  0.64080000  1.0 0.1102177402
H  H27  1  0.67890000  0.29920000  0.59180000  1.0 0.1199193776
H  H28  1  0.75070000  0.18820000  0.61740000  1.0 0.129581278
H  H29  1  0.58370000  0.99960000  0.67320000  1.0 0.129581278
H  H30  1  0.54320000  0.94490000  0.63960000  1.0 0.1199193776
H  H31  1  0.57910000  0.89950000  0.59380000  1.0 0.1199193776
H  H32  1  0.69600000  0.96340000  0.61530000  1.0 0.129581278
H  H33  1  0.61930000  0.97190000  0.53510000  1.0 0.129581278
H  H34  1  0.67920000  0.85970000  0.64460000  1.0 0.129581278
H  H35  1  0.71760000  0.78460000  0.64550000  1.0 0.1199193776
H  H36  1  0.78160000  0.68060000  0.53490000  1.0 0.129581278
H  H37  1  0.15890000  0.06380000  0.82070000  1.0 0.129581278
H  H38  1  0.11150000  0.13110000  0.82300000  1.0 0.129581278
H  H39  1  0.00560000  0.17050000  0.88270000  1.0 0.1199193776
H  H40  1  0.01760000  0.24770000  0.88590000  1.0 0.1199193776
H  H41  1  0.04360000  0.28620000  0.83110000  1.0 0.129581278
H  H42  1  0.04540000  0.17040000  0.77010000  1.0 0.129581278
H  H43  1  0.21650000  0.36200000  0.67810000  1.0 0.1199193776
H  H44  1  0.28110000  0.37230000  0.64080000  1.0 0.1102177402
H  H45  1  0.29920000  0.32110000  0.59180000  1.0 0.1199193776
H  H46  1  0.18820000  0.24930000  0.61740000  1.0 0.129581278
H  H47  1  0.99960000  0.41630000  0.67320000  1.0 0.129581278
H  H48  1  0.94490000  0.45680000  0.63960000  1.0 0.1199193776
H  H49  1  0.89950000  0.42090000  0.59380000  1.0 0.1199193776
H  H50  1  0.96340000  0.30400000  0.61530000  1.0 0.129581278
H  H51  1  0.97190000  0.38070000  0.53510000  1.0 0.129581278
H  H52  1  0.85970000  0.32080000  0.64460000  1.0 0.129581278
H  H53  1  0.78460000  0.28240000  0.64550000  1.0 0.1199193776
H  H54  1  0.68060000  0.21840000  0.53490000  1.0 0.129581278
H  H55  1  0.84110000  0.93620000  0.82070000  1.0 0.129581278
H  H56  1  0.88850000  0.86890000  0.82300000  1.0 0.129581278
H  H57  1  0.99440000  0.82950000  0.88270000  1.0 0.1199193776
H  H58  1  0.98240000  0.75230000  0.88590000  1.0 0.1199193776
H  H59  1  0.95640000  0.71380000  0.83110000  1.0 0.129581278
H  H60  1  0.95460000  0.82960000  0.77010000  1.0 0.129581278
H  H61  1  0.78350000  0.63800000  0.67810000  1.0 0.1199193776
H  H62  1  0.71890000  0.62770000  0.64080000  1.0 0.1102177402
H  H63  1  0.70080000  0.67890000  0.59180000  1.0 0.1199193776
H  H64  1  0.81180000  0.75070000  0.61740000  1.0 0.129581278
H  H65  1  0.00040000  0.58370000  0.67320000  1.0 0.129581278
H  H66  1  0.05510000  0.54320000  0.63960000  1.0 0.1199193776
H  H67  1  0.10050000  0.57910000  0.59380000  1.0 0.1199193776
H  H68  1  0.03660000  0.69600000  0.61530000  1.0 0.129581278
H  H69  1  0.02810000  0.61930000  0.53510000  1.0 0.129581278
H  H70  1  0.14030000  0.67920000  0.64460000  1.0 0.129581278
H  H71  1  0.21540000  0.71760000  0.64550000  1.0 0.1199193776
H  H72  1  0.31940000  0.78160000  0.53490000  1.0 0.129581278
H  H73  1  0.43620000  0.34110000  0.67930000  1.0 0.129581278
H  H74  1  0.36890000  0.38850000  0.67700000  1.0 0.129581278
H  H75  1  0.32950000  0.49440000  0.61730000  1.0 0.1199193776
H  H76  1  0.25230000  0.48240000  0.61410000  1.0 0.1199193776
H  H77  1  0.21380000  0.45640000  0.66890000  1.0 0.129581278
H  H78  1  0.32960000  0.45460000  0.72990000  1.0 0.129581278
H  H79  1  0.13800000  0.28350000  0.82190000  1.0 0.1199193776
H  H80  1  0.12770000  0.21890000  0.85920000  1.0 0.1102177402
H  H81  1  0.17890000  0.20080000  0.90820000  1.0 0.1199193776
H  H82  1  0.25070000  0.31180000  0.88260000  1.0 0.129581278
H  H83  1  0.08370000  0.50040000  0.82680000  1.0 0.129581278
H  H84  1  0.04320000  0.55510000  0.86040000  1.0 0.1199193776
H  H85  1  0.07910000  0.60050000  0.90620000  1.0 0.1199193776
H  H86  1  0.19600000  0.53660000  0.88470000  1.0 0.129581278
H  H87  1  0.11930000  0.52810000  0.96490000  1.0 0.129581278
H  H88  1  0.17920000  0.64030000  0.85540000  1.0 0.129581278
H  H89  1  0.21760000  0.71540000  0.85450000  1.0 0.1199193776
H  H90  1  0.28160000  0.81940000  0.96510000  1.0 0.129581278
H  H91  1  0.56380000  0.65890000  0.67930000  1.0 0.129581278
H  H92  1  0.63110000  0.61150000  0.67700000  1.0 0.129581278
H  H93  1  0.67050000  0.50560000  0.61730000  1.0 0.1199193776
H  H94  1  0.74770000  0.51760000  0.61410000  1.0 0.1199193776
H  H95  1  0.78620000  0.54360000  0.66890000  1.0 0.129581278
H  H96  1  0.67040000  0.54540000  0.72990000  1.0 0.129581278
H  H97  1  0.86200000  0.71650000  0.82190000  1.0 0.1199193776
H  H98  1  0.87230000  0.78110000  0.85920000  1.0 0.1102177402
H  H99  1  0.82110000  0.79920000  0.90820000  1.0 0.1199193776
H  H100  1  0.74930000  0.68820000  0.88260000  1.0 0.129581278
H  H101  1  0.91630000  0.49960000  0.82680000  1.0 0.129581278
H  H102  1  0.95680000  0.44490000  0.86040000  1.0 0.1199193776
H  H103  1  0.92090000  0.39950000  0.90620000  1.0 0.1199193776
H  H104  1  0.80400000  0.46340000  0.88470000  1.0 0.129581278
H  H105  1  0.88070000  0.47190000  0.96490000  1.0 0.129581278
H  H106  1  0.82080000  0.35970000  0.85540000  1.0 0.129581278
H  H107  1  0.78240000  0.28460000  0.85450000  1.0 0.1199193776
H  H108  1  0.71840000  0.18060000  0.96510000  1.0 0.129581278
H  H109  1  0.34110000  0.56380000  0.67930000  1.0 0.129581278
H  H110  1  0.38850000  0.63110000  0.67700000  1.0 0.129581278
H  H111  1  0.49440000  0.67050000  0.61730000  1.0 0.1199193776
H  H112  1  0.48240000  0.74770000  0.61410000  1.0 0.1199193776
H  H113  1  0.45640000  0.78620000  0.66890000  1.0 0.129581278
H  H114  1  0.45460000  0.67040000  0.72990000  1.0 0.129581278
H  H115  1  0.28350000  0.86200000  0.82190000  1.0 0.1199193776
H  H116  1  0.21890000  0.87230000  0.85920000  1.0 0.1102177402
H  H117  1  0.20080000  0.82110000  0.90820000  1.0 0.1199193776
H  H118  1  0.31180000  0.74930000  0.88260000  1.0 0.129581278
H  H119  1  0.50040000  0.91630000  0.82680000  1.0 0.129581278
H  H120  1  0.55510000  0.95680000  0.86040000  1.0 0.1199193776
H  H121  1  0.60050000  0.92090000  0.90620000  1.0 0.1199193776
H  H122  1  0.53660000  0.80400000  0.88470000  1.0 0.129581278
H  H123  1  0.52810000  0.88070000  0.96490000  1.0 0.129581278
H  H124  1  0.64030000  0.82080000  0.85540000  1.0 0.129581278
H  H125  1  0.71540000  0.78240000  0.85450000  1.0 0.1199193776
H  H126  1  0.81940000  0.71840000  0.96510000  1.0 0.129581278
H  H127  1  0.65890000  0.43620000  0.67930000  1.0 0.129581278
H  H128  1  0.61150000  0.36890000  0.67700000  1.0 0.129581278
H  H129  1  0.50560000  0.32950000  0.61730000  1.0 0.1199193776
H  H130  1  0.51760000  0.25230000  0.61410000  1.0 0.1199193776
H  H131  1  0.54360000  0.21380000  0.66890000  1.0 0.129581278
H  H132  1  0.54540000  0.32960000  0.72990000  1.0 0.129581278
H  H133  1  0.71650000  0.13800000  0.82190000  1.0 0.1199193776
H  H134  1  0.78110000  0.12770000  0.85920000  1.0 0.1102177402
H  H135  1  0.79920000  0.17890000  0.90820000  1.0 0.1199193776
H  H136  1  0.68820000  0.25070000  0.88260000  1.0 0.129581278
H  H137  1  0.49960000  0.08370000  0.82680000  1.0 0.129581278
H  H138  1  0.44490000  0.04320000  0.86040000  1.0 0.1199193776
H  H139  1  0.39950000  0.07910000  0.90620000  1.0 0.1199193776
H  H140  1  0.46340000  0.19600000  0.88470000  1.0 0.129581278
H  H141  1  0.47190000  0.11930000  0.96490000  1.0 0.129581278
H  H142  1  0.35970000  0.17920000  0.85540000  1.0 0.129581278
H  H143  1  0.28460000  0.21760000  0.85450000  1.0 0.1199193776
H  H144  1  0.18060000  0.28160000  0.96510000  1.0 0.129581278
H  H145  1  0.93620000  0.15890000  0.17930000  1.0 0.129581278
H  H146  1  0.86890000  0.11150000  0.17700000  1.0 0.129581278
H  H147  1  0.82950000  0.00560000  0.11730000  1.0 0.1199193776
H  H148  1  0.75230000  0.01760000  0.11410000  1.0 0.1199193776
H  H149  1  0.71380000  0.04360000  0.16890000  1.0 0.129581278
H  H150  1  0.82960000  0.04540000  0.22990000  1.0 0.129581278
H  H151  1  0.63800000  0.21650000  0.32190000  1.0 0.1199193776
H  H152  1  0.62770000  0.28110000  0.35920000  1.0 0.1102177402
H  H153  1  0.67890000  0.29920000  0.40820000  1.0 0.1199193776
H  H154  1  0.75070000  0.18820000  0.38260000  1.0 0.129581278
H  H155  1  0.58370000  0.99960000  0.32680000  1.0 0.129581278
H  H156  1  0.54320000  0.94490000  0.36040000  1.0 0.1199193776
H  H157  1  0.57910000  0.89950000  0.40620000  1.0 0.1199193776
H  H158  1  0.69600000  0.96340000  0.38470000  1.0 0.129581278
H  H159  1  0.61930000  0.97190000  0.46490000  1.0 0.129581278
H  H160  1  0.67920000  0.85970000  0.35540000  1.0 0.129581278
H  H161  1  0.71760000  0.78460000  0.35450000  1.0 0.1199193776
H  H162  1  0.78160000  0.68060000  0.46510000  1.0 0.129581278
H  H163  1  0.06380000  0.84110000  0.17930000  1.0 0.129581278
H  H164  1  0.13110000  0.88850000  0.17700000  1.0 0.129581278
H  H165  1  0.17050000  0.99440000  0.11730000  1.0 0.1199193776
H  H166  1  0.24770000  0.98240000  0.11410000  1.0 0.1199193776
H  H167  1  0.28620000  0.95640000  0.16890000  1.0 0.129581278
H  H168  1  0.17040000  0.95460000  0.22990000  1.0 0.129581278
H  H169  1  0.36200000  0.78350000  0.32190000  1.0 0.1199193776
H  H170  1  0.37230000  0.71890000  0.35920000  1.0 0.1102177402
H  H171  1  0.32110000  0.70080000  0.40820000  1.0 0.1199193776
H  H172  1  0.24930000  0.81180000  0.38260000  1.0 0.129581278
H  H173  1  0.41630000  0.00040000  0.32680000  1.0 0.129581278
H  H174  1  0.45680000  0.05510000  0.36040000  1.0 0.1199193776
H  H175  1  0.42090000  0.10050000  0.40620000  1.0 0.1199193776
H  H176  1  0.30400000  0.03660000  0.38470000  1.0 0.129581278
H  H177  1  0.38070000  0.02810000  0.46490000  1.0 0.129581278
H  H178  1  0.32080000  0.14030000  0.35540000  1.0 0.129581278
H  H179  1  0.28240000  0.21540000  0.35450000  1.0 0.1199193776
H  H180  1  0.21840000  0.31940000  0.46510000  1.0 0.129581278
H  H181  1  0.84110000  0.93620000  0.17930000  1.0 0.129581278
H  H182  1  0.88850000  0.86890000  0.17700000  1.0 0.129581278
H  H183  1  0.99440000  0.82950000  0.11730000  1.0 0.1199193776
H  H184  1  0.98240000  0.75230000  0.11410000  1.0 0.1199193776
H  H185  1  0.95640000  0.71380000  0.16890000  1.0 0.129581278
H  H186  1  0.95460000  0.82960000  0.22990000  1.0 0.129581278
H  H187  1  0.78350000  0.63800000  0.32190000  1.0 0.1199193776
H  H188  1  0.71890000  0.62770000  0.35920000  1.0 0.1102177402
H  H189  1  0.70080000  0.67890000  0.40820000  1.0 0.1199193776
H  H190  1  0.81180000  0.75070000  0.38260000  1.0 0.129581278
H  H191  1  0.00040000  0.58370000  0.32680000  1.0 0.129581278
H  H192  1  0.05510000  0.54320000  0.36040000  1.0 0.1199193776
H  H193  1  0.10050000  0.57910000  0.40620000  1.0 0.1199193776
H  H194  1  0.03660000  0.69600000  0.38470000  1.0 0.129581278
H  H195  1  0.02810000  0.61930000  0.46490000  1.0 0.129581278
H  H196  1  0.14030000  0.67920000  0.35540000  1.0 0.129581278
H  H197  1  0.21540000  0.71760000  0.35450000  1.0 0.1199193776
H  H198  1  0.31940000  0.78160000  0.46510000  1.0 0.129581278
H  H199  1  0.15890000  0.06380000  0.17930000  1.0 0.129581278
H  H200  1  0.11150000  0.13110000  0.17700000  1.0 0.129581278
H  H201  1  0.00560000  0.17050000  0.11730000  1.0 0.1199193776
H  H202  1  0.01760000  0.24770000  0.11410000  1.0 0.1199193776
H  H203  1  0.04360000  0.28620000  0.16890000  1.0 0.129581278
H  H204  1  0.04540000  0.17040000  0.22990000  1.0 0.129581278
H  H205  1  0.21650000  0.36200000  0.32190000  1.0 0.1199193776
H  H206  1  0.28110000  0.37230000  0.35920000  1.0 0.1102177402
H  H207  1  0.29920000  0.32110000  0.40820000  1.0 0.1199193776
H  H208  1  0.18820000  0.24930000  0.38260000  1.0 0.129581278
H  H209  1  0.99960000  0.41630000  0.32680000  1.0 0.129581278
H  H210  1  0.94490000  0.45680000  0.36040000  1.0 0.1199193776
H  H211  1  0.89950000  0.42090000  0.40620000  1.0 0.1199193776
H  H212  1  0.96340000  0.30400000  0.38470000  1.0 0.129581278
H  H213  1  0.97190000  0.38070000  0.46490000  1.0 0.129581278
H  H214  1  0.85970000  0.32080000  0.35540000  1.0 0.129581278
H  H215  1  0.78460000  0.28240000  0.35450000  1.0 0.1199193776
H  H216  1  0.68060000  0.21840000  0.46510000  1.0 0.129581278
H  H217  1  0.56380000  0.65890000  0.32070000  1.0 0.129581278
H  H218  1  0.63110000  0.61150000  0.32300000  1.0 0.129581278
H  H219  1  0.67050000  0.50560000  0.38270000  1.0 0.1199193776
H  H220  1  0.74770000  0.51760000  0.38590000  1.0 0.1199193776
H  H221  1  0.78620000  0.54360000  0.33110000  1.0 0.129581278
H  H222  1  0.67040000  0.54540000  0.27010000  1.0 0.129581278
H  H223  1  0.86200000  0.71650000  0.17810000  1.0 0.1199193776
H  H224  1  0.87230000  0.78110000  0.14080000  1.0 0.1102177402
H  H225  1  0.82110000  0.79920000  0.09180000  1.0 0.1199193776
H  H226  1  0.74930000  0.68820000  0.11740000  1.0 0.129581278
H  H227  1  0.91630000  0.49960000  0.17320000  1.0 0.129581278
H  H228  1  0.95680000  0.44490000  0.13960000  1.0 0.1199193776
H  H229  1  0.92090000  0.39950000  0.09380000  1.0 0.1199193776
H  H230  1  0.80400000  0.46340000  0.11530000  1.0 0.129581278
H  H231  1  0.88070000  0.47190000  0.03510000  1.0 0.129581278
H  H232  1  0.82080000  0.35970000  0.14460000  1.0 0.129581278
H  H233  1  0.78240000  0.28460000  0.14550000  1.0 0.1199193776
H  H234  1  0.71840000  0.18060000  0.03490000  1.0 0.129581278
H  H235  1  0.43620000  0.34110000  0.32070000  1.0 0.129581278
H  H236  1  0.36890000  0.38850000  0.32300000  1.0 0.129581278
H  H237  1  0.32950000  0.49440000  0.38270000  1.0 0.1199193776
H  H238  1  0.25230000  0.48240000  0.38590000  1.0 0.1199193776
H  H239  1  0.21380000  0.45640000  0.33110000  1.0 0.129581278
H  H240  1  0.32960000  0.45460000  0.27010000  1.0 0.129581278
H  H241  1  0.13800000  0.28350000  0.17810000  1.0 0.1199193776
H  H242  1  0.12770000  0.21890000  0.14080000  1.0 0.1102177402
H  H243  1  0.17890000  0.20080000  0.09180000  1.0 0.1199193776
H  H244  1  0.25070000  0.31180000  0.11740000  1.0 0.129581278
H  H245  1  0.08370000  0.50040000  0.17320000  1.0 0.129581278
H  H246  1  0.04320000  0.55510000  0.13960000  1.0 0.1199193776
H  H247  1  0.07910000  0.60050000  0.09380000  1.0 0.1199193776
H  H248  1  0.19600000  0.53660000  0.11530000  1.0 0.129581278
H  H249  1  0.11930000  0.52810000  0.03510000  1.0 0.129581278
H  H250  1  0.17920000  0.64030000  0.14460000  1.0 0.129581278
H  H251  1  0.21760000  0.71540000  0.14550000  1.0 0.1199193776
H  H252  1  0.28160000  0.81940000  0.03490000  1.0 0.129581278
H  H253  1  0.65890000  0.43620000  0.32070000  1.0 0.129581278
H  H254  1  0.61150000  0.36890000  0.32300000  1.0 0.129581278
H  H255  1  0.50560000  0.32950000  0.38270000  1.0 0.1199193776
H  H256  1  0.51760000  0.25230000  0.38590000  1.0 0.1199193776
H  H257  1  0.54360000  0.21380000  0.33110000  1.0 0.129581278
H  H258  1  0.54540000  0.32960000  0.27010000  1.0 0.129581278
H  H259  1  0.71650000  0.13800000  0.17810000  1.0 0.1199193776
H  H260  1  0.78110000  0.12770000  0.14080000  1.0 0.1102177402
H  H261  1  0.79920000  0.17890000  0.09180000  1.0 0.1199193776
H  H262  1  0.68820000  0.25070000  0.11740000  1.0 0.129581278
H  H263  1  0.49960000  0.08370000  0.17320000  1.0 0.129581278
H  H264  1  0.44490000  0.04320000  0.13960000  1.0 0.1199193776
H  H265  1  0.39950000  0.07910000  0.09380000  1.0 0.1199193776
H  H266  1  0.46340000  0.19600000  0.11530000  1.0 0.129581278
H  H267  1  0.47190000  0.11930000  0.03510000  1.0 0.129581278
H  H268  1  0.35970000  0.17920000  0.14460000  1.0 0.129581278
H  H269  1  0.28460000  0.21760000  0.14550000  1.0 0.1199193776
H  H270  1  0.18060000  0.28160000  0.03490000  1.0 0.129581278
H  H271  1  0.34110000  0.56380000  0.32070000  1.0 0.129581278
H  H272  1  0.38850000  0.63110000  0.32300000  1.0 0.129581278
H  H273  1  0.49440000  0.67050000  0.38270000  1.0 0.1199193776
H  H274  1  0.48240000  0.74770000  0.38590000  1.0 0.1199193776
H  H275  1  0.45640000  0.78620000  0.33110000  1.0 0.129581278
H  H276  1  0.45460000  0.67040000  0.27010000  1.0 0.129581278
H  H277  1  0.28350000  0.86200000  0.17810000  1.0 0.1199193776
H  H278  1  0.21890000  0.87230000  0.14080000  1.0 0.1102177402
H  H279  1  0.20080000  0.82110000  0.09180000  1.0 0.1199193776
H  H280  1  0.31180000  0.74930000  0.11740000  1.0 0.129581278
H  H281  1  0.50040000  0.91630000  0.17320000  1.0 0.129581278
H  H282  1  0.55510000  0.95680000  0.13960000  1.0 0.1199193776
H  H283  1  0.60050000  0.92090000  0.09380000  1.0 0.1199193776
H  H284  1  0.53660000  0.80400000  0.11530000  1.0 0.129581278
H  H285  1  0.52810000  0.88070000  0.03510000  1.0 0.129581278
H  H286  1  0.64030000  0.82080000  0.14460000  1.0 0.129581278
H  H287  1  0.71540000  0.78240000  0.14550000  1.0 0.1199193776
H  H288  1  0.81940000  0.71840000  0.03490000  1.0 0.129581278
H  H289  1  0.17660000  0.96750000  0.59840000  0.45 0.1199193776
H  H290  1  0.17380000  0.96550000  0.53040000  0.45 0.1199193776
H  H291  1  0.30230000  0.92290000  0.52730000  0.45 0.1199193776
H  H292  1  0.30520000  0.92490000  0.59530000  0.45 0.0994099635
H  H293  1  0.82340000  0.03250000  0.59840000  0.45 0.1199193776
H  H294  1  0.82620000  0.03450000  0.53040000  0.45 0.1199193776
H  H295  1  0.69770000  0.07710000  0.52730000  0.45 0.129581278
H  H296  1  0.69480000  0.07510000  0.59530000  0.45 0.0994099635
H  H297  1  0.03250000  0.17660000  0.59840000  0.45 0.1199193776
H  H298  1  0.03450000  0.17380000  0.53040000  0.45 0.1199193776
H  H299  1  0.07710000  0.30230000  0.52730000  0.45 0.1199193776
H  H300  1  0.07510000  0.30520000  0.59530000  0.45 0.0994099635
H  H301  1  0.96750000  0.82340000  0.59840000  0.45 0.1199193776
H  H302  1  0.96550000  0.82620000  0.53040000  0.45 0.1199193776
H  H303  1  0.92290000  0.69770000  0.52730000  0.45 0.1199193776
H  H304  1  0.92490000  0.69480000  0.59530000  0.45 0.0994099635
H  H305  1  0.32340000  0.46750000  0.90160000  0.45 0.1199193776
H  H306  1  0.32620000  0.46550000  0.96960000  0.45 0.1199193776
H  H307  1  0.19770000  0.42290000  0.97270000  0.45 0.129581278
H  H308  1  0.19480000  0.42490000  0.90470000  0.45 0.0994099635
H  H309  1  0.67660000  0.53250000  0.90160000  0.45 0.1199193776
H  H310  1  0.67380000  0.53450000  0.96960000  0.45 0.1199193776
H  H311  1  0.80230000  0.57710000  0.97270000  0.45 0.129581278
H  H312  1  0.80520000  0.57510000  0.90470000  0.45 0.0994099635
H  H313  1  0.46750000  0.67660000  0.90160000  0.45 0.1199193776
H  H314  1  0.46550000  0.67380000  0.96960000  0.45 0.1199193776
H  H315  1  0.42290000  0.80230000  0.97270000  0.45 0.129581278
H  H316  1  0.42490000  0.80520000  0.90470000  0.45 0.0994099635
H  H317  1  0.53250000  0.32340000  0.90160000  0.45 0.1199193776
H  H318  1  0.53450000  0.32620000  0.96960000  0.45 0.1199193776
H  H319  1  0.57710000  0.19770000  0.97270000  0.45 0.129581278
H  H320  1  0.57510000  0.19480000  0.90470000  0.45 0.0994099635
H  H321  1  0.82340000  0.03250000  0.40160000  0.45 0.1199193776
H  H322  1  0.82620000  0.03450000  0.46960000  0.45 0.1199193776
H  H323  1  0.69770000  0.07710000  0.47270000  0.45 0.129581278
H  H324  1  0.69480000  0.07510000  0.40470000  0.45 0.0994099635
H  H325  1  0.17660000  0.96750000  0.40160000  0.45 0.1199193776
H  H326  1  0.17380000  0.96550000  0.46960000  0.45 0.1199193776
H  H327  1  0.30230000  0.92290000  0.47270000  0.45 0.1199193776
H  H328  1  0.30520000  0.92490000  0.40470000  0.45 0.0994099635
H  H329  1  0.96750000  0.82340000  0.40160000  0.45 0.1199193776
H  H330  1  0.96550000  0.82620000  0.46960000  0.45 0.1199193776
H  H331  1  0.92290000  0.69770000  0.47270000  0.45 0.1199193776
H  H332  1  0.92490000  0.69480000  0.40470000  0.45 0.0994099635
H  H333  1  0.03250000  0.17660000  0.40160000  0.45 0.1199193776
H  H334  1  0.03450000  0.17380000  0.46960000  0.45 0.1199193776
H  H335  1  0.07710000  0.30230000  0.47270000  0.45 0.129581278
H  H336  1  0.07510000  0.30520000  0.40470000  0.45 0.0994099635
H  H337  1  0.67660000  0.53250000  0.09840000  0.45 0.1199193776
H  H338  1  0.67380000  0.53450000  0.03040000  0.45 0.1199193776
H  H339  1  0.80230000  0.57710000  0.02730000  0.45 0.1199193776
H  H340  1  0.80520000  0.57510000  0.09530000  0.45 0.0994099635
H  H341  1  0.32340000  0.46750000  0.09840000  0.45 0.1199193776
H  H342  1  0.32620000  0.46550000  0.03040000  0.45 0.1199193776
H  H343  1  0.19770000  0.42290000  0.02730000  0.45 0.1199193776
H  H344  1  0.19480000  0.42490000  0.09530000  0.45 0.0994099635
H  H345  1  0.53250000  0.32340000  0.09840000  0.45 0.1199193776
H  H346  1  0.53450000  0.32620000  0.03040000  0.45 0.1199193776
H  H347  1  0.57710000  0.19770000  0.02730000  0.45 0.1199193776
H  H348  1  0.57510000  0.19480000  0.09530000  0.45 0.0994099635
H  H349  1  0.46750000  0.67660000  0.09840000  0.45 0.1199193776
H  H350  1  0.46550000  0.67380000  0.03040000  0.45 0.1199193776
H  H351  1  0.42290000  0.80230000  0.02730000  0.45 0.1199193776
H  H352  1  0.42490000  0.80520000  0.09530000  0.45 0.0994099635
H  H353  1  0.93820000  0.97940000  0.90530000  0.5 0.1102177402
H  H354  1  0.93420000  0.98320000  0.97070000  0.5 0.0994099635
H  H355  1  0.06180000  0.02060000  0.90530000  0.5 0.1102177402
H  H356  1  0.06580000  0.01680000  0.97070000  0.5 0.0994099635
H  H357  1  0.02060000  0.93820000  0.90530000  0.5 0.1102177402
H  H358  1  0.01680000  0.93420000  0.97070000  0.5 0.0994099635
H  H359  1  0.97940000  0.06180000  0.90530000  0.5 0.1102177402
H  H360  1  0.98320000  0.06580000  0.97070000  0.5 0.0994099635
H  H361  1  0.56180000  0.47940000  0.59470000  0.5 0.1102177402
H  H362  1  0.56580000  0.48320000  0.52930000  0.5 0.0994099635
H  H363  1  0.43820000  0.52060000  0.59470000  0.5 0.1102177402
H  H364  1  0.43420000  0.51680000  0.52930000  0.5 0.0994099635
H  H365  1  0.47940000  0.43820000  0.59470000  0.5 0.1102177402
H  H366  1  0.48320000  0.43420000  0.52930000  0.5 0.0994099635
H  H367  1  0.52060000  0.56180000  0.59470000  0.5 0.1102177402
H  H368  1  0.51680000  0.56580000  0.52930000  0.5 0.0994099635
H  H369  1  0.06180000  0.02060000  0.09470000  0.5 0.1102177402
H  H370  1  0.06580000  0.01680000  0.02930000  0.5 0.0994099635
H  H371  1  0.93820000  0.97940000  0.09470000  0.5 0.1102177402
H  H372  1  0.93420000  0.98320000  0.02930000  0.5 0.0994099635
H  H373  1  0.97940000  0.06180000  0.09470000  0.5 0.1102177402
H  H374  1  0.98320000  0.06580000  0.02930000  0.5 0.0994099635
H  H375  1  0.02060000  0.93820000  0.09470000  0.5 0.1102177402
H  H376  1  0.01680000  0.93420000  0.02930000  0.5 0.0994099635
H  H377  1  0.43820000  0.52060000  0.40530000  0.5 0.1102177402
H  H378  1  0.43420000  0.51680000  0.47070000  0.5 0.0994099635
H  H379  1  0.56180000  0.47940000  0.40530000  0.5 0.1102177402
H  H380  1  0.56580000  0.48320000  0.47070000  0.5 0.0994099635
H  H381  1  0.52060000  0.56180000  0.40530000  0.5 0.1102177402
H  H382  1  0.51680000  0.56580000  0.47070000  0.5 0.0994099635
H  H383  1  0.47940000  0.43820000  0.40530000  0.5 0.1102177402
H  H384  1  0.48320000  0.43420000  0.47070000  0.5 0.0994099635
C  C1  1  0.02620000  0.90070000  0.82510000  1.0 0.1687321968
C  C2  1  0.06420000  0.87280000  0.82260000  1.0 -0.1984436728
C  C3  1  0.10100000  0.89860000  0.82330000  1.0 -0.1916120767
C  C4  1  0.08620000  0.94460000  0.82465000  1.0 0.1687321968
C  C5  1  0.11360000  0.98180000  0.82424000  1.0 -0.06860232
C  C6  1  0.16319000  0.97563000  0.82610000  1.0 0.0805172422
C  C7  1  0.18616000  0.98390000  0.86050000  1.0 -0.1497872388
C  C8  1  0.23201000  0.97670000  0.86238000  1.0 -0.1007728072
C  C9  1  0.25491000  0.96130000  0.82985000  1.0 -0.1083223678
C  C10  1  0.23194000  0.95305000  0.79544000  1.0 -0.0582038823
C  C11  1  0.18608000  0.96021000  0.79357000  1.0 -0.1387573703
C  C12  1  0.25750000  0.94040000  0.76090000  1.0 0.5888299576
C  C13  1  0.30040000  0.84660000  0.67100000  1.0 0.5613038882
C  C14  1  0.30470000  0.80370000  0.65130000  1.0 -0.0328207737
C  C15  1  0.34120000  0.77620000  0.65820000  1.0 -0.1007728072
C  C16  1  0.34730000  0.73780000  0.63610000  1.0 -0.0928047222
C  C17  1  0.31690000  0.72700000  0.60700000  1.0 -0.1387573703
C  C18  1  0.28040000  0.75460000  0.60000000  1.0 0.0805172422
C  C19  1  0.27430000  0.79300000  0.62220000  1.0 -0.1497872388
C  C20  1  0.33100000  0.97820000  0.66666667  1.0 0.5613038882
C  C21  1  0.35640000  0.01340000  0.64740000  1.0 -0.0492545983
C  C22  1  0.40180000  0.01890000  0.65460000  1.0 -0.1007728072
C  C23  1  0.42580000  0.05130000  0.63470000  1.0 -0.1007728072
C  C24  1  0.40450000  0.07830000  0.60750000  1.0 -0.1387573703
C  C25  1  0.35910000  0.07280000  0.60020000  1.0 0.0893184326
C  C26  1  0.33500000  0.04040000  0.62020000  1.0 -0.1497872388
C  C27  1  0.36800000  0.05020000  0.51860000  1.0 -0.180854995
C  C28  1  0.34460000  0.09070000  0.53110000  1.0 0.1876122344
C  C29  1  0.33960000  0.10480000  0.57050000  1.0 -0.1007728072
C  C30  1  0.31800000  0.14290000  0.58170000  1.0 0.2241656545
C  C31  1  0.31160000  0.15680000  0.62240000  1.0 -0.2142672494
C  C32  1  0.28990000  0.19820000  0.62320000  1.0 -0.1497872388
C  C33  1  0.28140000  0.20920000  0.58340000  1.0 0.1497001115
C  C34  1  0.26130000  0.24590000  0.57230000  1.0 -0.0492545983
C  C35  1  0.25310000  0.25810000  0.53200000  1.0 0.1687321968
C  C36  1  0.23110000  0.29700000  0.51880000  1.0 -0.1916120767
C  C37  1  0.97380000  0.09930000  0.82510000  1.0 0.1687321968
C  C38  1  0.93580000  0.12720000  0.82260000  1.0 -0.1984436728
C  C39  1  0.89900000  0.10140000  0.82330000  1.0 -0.1916120767
C  C40  1  0.91380000  0.05540000  0.82465000  1.0 0.1687321968
C  C41  1  0.88640000  0.01820000  0.82424000  1.0 -0.06860232
C  C42  1  0.83681000  0.02437000  0.82610000  1.0 0.0805172422
C  C43  1  0.81384000  0.01610000  0.86050000  1.0 -0.1497872388
C  C44  1  0.76799000  0.02330000  0.86238000  1.0 -0.1007728072
C  C45  1  0.74509000  0.03870000  0.82985000  1.0 -0.1083223678
C  C46  1  0.76806000  0.04695000  0.79544000  1.0 -0.0582038823
C  C47  1  0.81392000  0.03979000  0.79357000  1.0 -0.1387573703
C  C48  1  0.74250000  0.05960000  0.76090000  1.0 0.5888299576
C  C49  1  0.69960000  0.15340000  0.67100000  1.0 0.5613038882
C  C50  1  0.69530000  0.19630000  0.65130000  1.0 -0.0328207737
C  C51  1  0.65880000  0.22380000  0.65820000  1.0 -0.1007728072
C  C52  1  0.65270000  0.26220000  0.63610000  1.0 -0.0928047222
C  C53  1  0.68310000  0.27300000  0.60700000  1.0 -0.1387573703
C  C54  1  0.71960000  0.24540000  0.60000000  1.0 0.0805172422
C  C55  1  0.72570000  0.20700000  0.62220000  1.0 -0.1497872388
C  C56  1  0.66900000  0.02180000  0.66666667  1.0 0.5613038882
C  C57  1  0.64360000  0.98660000  0.64740000  1.0 -0.0492545983
C  C58  1  0.59820000  0.98110000  0.65460000  1.0 -0.1007728072
C  C59  1  0.57420000  0.94870000  0.63470000  1.0 -0.1007728072
C  C60  1  0.59550000  0.92170000  0.60750000  1.0 -0.1387573703
C  C61  1  0.64090000  0.92720000  0.60020000  1.0 0.0893184326
C  C62  1  0.66500000  0.95960000  0.62020000  1.0 -0.1497872388
C  C63  1  0.63200000  0.94980000  0.51860000  1.0 -0.180854995
C  C64  1  0.65540000  0.90930000  0.53110000  1.0 0.1876122344
C  C65  1  0.66040000  0.89520000  0.57050000  1.0 -0.1007728072
C  C66  1  0.68200000  0.85710000  0.58170000  1.0 0.2241656545
C  C67  1  0.68840000  0.84320000  0.62240000  1.0 -0.2142672494
C  C68  1  0.71010000  0.80180000  0.62320000  1.0 -0.1497872388
C  C69  1  0.71860000  0.79080000  0.58340000  1.0 0.1497001115
C  C70  1  0.73870000  0.75410000  0.57230000  1.0 -0.0492545983
C  C71  1  0.74690000  0.74190000  0.53200000  1.0 0.1687321968
C  C72  1  0.76890000  0.70300000  0.51880000  1.0 -0.1916120767
C  C73  1  0.09930000  0.02620000  0.82510000  1.0 0.1687321968
C  C74  1  0.12720000  0.06420000  0.82260000  1.0 -0.1984436728
C  C75  1  0.10140000  0.10100000  0.82330000  1.0 -0.1916120767
C  C76  1  0.05540000  0.08620000  0.82465000  1.0 0.1687321968
C  C77  1  0.01820000  0.11360000  0.82424000  1.0 -0.06860232
C  C78  1  0.02437000  0.16319000  0.82610000  1.0 0.0805172422
C  C79  1  0.01610000  0.18616000  0.86050000  1.0 -0.1497872388
C  C80  1  0.02330000  0.23201000  0.86238000  1.0 -0.1007728072
C  C81  1  0.03870000  0.25491000  0.82985000  1.0 -0.1083223678
C  C82  1  0.04695000  0.23194000  0.79544000  1.0 -0.0582038823
C  C83  1  0.03979000  0.18608000  0.79357000  1.0 -0.1387573703
C  C84  1  0.05960000  0.25750000  0.76090000  1.0 0.5888299576
C  C85  1  0.15340000  0.30040000  0.67100000  1.0 0.5613038882
C  C86  1  0.19630000  0.30470000  0.65130000  1.0 -0.0328207737
C  C87  1  0.22380000  0.34120000  0.65820000  1.0 -0.1007728072
C  C88  1  0.26220000  0.34730000  0.63610000  1.0 -0.0928047222
C  C89  1  0.27300000  0.31690000  0.60700000  1.0 -0.1387573703
C  C90  1  0.24540000  0.28040000  0.60000000  1.0 0.0805172422
C  C91  1  0.20700000  0.27430000  0.62220000  1.0 -0.1497872388
C  C92  1  0.02180000  0.33100000  0.66666667  1.0 0.5613038882
C  C93  1  0.98660000  0.35640000  0.64740000  1.0 -0.0492545983
C  C94  1  0.98110000  0.40180000  0.65460000  1.0 -0.1007728072
C  C95  1  0.94870000  0.42580000  0.63470000  1.0 -0.1007728072
C  C96  1  0.92170000  0.40450000  0.60750000  1.0 -0.1387573703
C  C97  1  0.92720000  0.35910000  0.60020000  1.0 0.0893184326
C  C98  1  0.95960000  0.33500000  0.62020000  1.0 -0.1497872388
C  C99  1  0.94980000  0.36800000  0.51860000  1.0 -0.180854995
C  C100  1  0.90930000  0.34460000  0.53110000  1.0 0.1876122344
C  C101  1  0.89520000  0.33960000  0.57050000  1.0 -0.1007728072
C  C102  1  0.85710000  0.31800000  0.58170000  1.0 0.2241656545
C  C103  1  0.84320000  0.31160000  0.62240000  1.0 -0.2142672494
C  C104  1  0.80180000  0.28990000  0.62320000  1.0 -0.1497872388
C  C105  1  0.79080000  0.28140000  0.58340000  1.0 0.1497001115
C  C106  1  0.75410000  0.26130000  0.57230000  1.0 -0.0492545983
C  C107  1  0.74190000  0.25310000  0.53200000  1.0 0.1687321968
C  C108  1  0.70300000  0.23110000  0.51880000  1.0 -0.1916120767
C  C109  1  0.90070000  0.97380000  0.82510000  1.0 0.1687321968
C  C110  1  0.87280000  0.93580000  0.82260000  1.0 -0.1984436728
C  C111  1  0.89860000  0.89900000  0.82330000  1.0 -0.1916120767
C  C112  1  0.94460000  0.91380000  0.82465000  1.0 0.1648404233
C  C113  1  0.98180000  0.88640000  0.82424000  1.0 -0.06860232
C  C114  1  0.97563000  0.83681000  0.82610000  1.0 0.0805172422
C  C115  1  0.98390000  0.81384000  0.86050000  1.0 -0.1497872388
C  C116  1  0.97670000  0.76799000  0.86238000  1.0 -0.1007728072
C  C117  1  0.96130000  0.74509000  0.82985000  1.0 -0.1083223678
C  C118  1  0.95305000  0.76806000  0.79544000  1.0 -0.0582038823
C  C119  1  0.96021000  0.81392000  0.79357000  1.0 -0.1387573703
C  C120  1  0.94040000  0.74250000  0.76090000  1.0 0.5888299576
C  C121  1  0.84660000  0.69960000  0.67100000  1.0 0.5613038882
C  C122  1  0.80370000  0.69530000  0.65130000  1.0 -0.0328207737
C  C123  1  0.77620000  0.65880000  0.65820000  1.0 -0.1007728072
C  C124  1  0.73780000  0.65270000  0.63610000  1.0 -0.0928047222
C  C125  1  0.72700000  0.68310000  0.60700000  1.0 -0.1387573703
C  C126  1  0.75460000  0.71960000  0.60000000  1.0 0.0805172422
C  C127  1  0.79300000  0.72570000  0.62220000  1.0 -0.1497872388
C  C128  1  0.97820000  0.66900000  0.66666667  1.0 0.5613038882
C  C129  1  0.01340000  0.64360000  0.64740000  1.0 -0.0492545983
C  C130  1  0.01890000  0.59820000  0.65460000  1.0 -0.1007728072
C  C131  1  0.05130000  0.57420000  0.63470000  1.0 -0.1007728072
C  C132  1  0.07830000  0.59550000  0.60750000  1.0 -0.1387573703
C  C133  1  0.07280000  0.64090000  0.60020000  1.0 0.0893184326
C  C134  1  0.04040000  0.66500000  0.62020000  1.0 -0.1497872388
C  C135  1  0.05020000  0.63200000  0.51860000  1.0 -0.180854995
C  C136  1  0.09070000  0.65540000  0.53110000  1.0 0.1876122344
C  C137  1  0.10480000  0.66040000  0.57050000  1.0 -0.1007728072
C  C138  1  0.14290000  0.68200000  0.58170000  1.0 0.2241656545
C  C139  1  0.15680000  0.68840000  0.62240000  1.0 -0.2142672494
C  C140  1  0.19820000  0.71010000  0.62320000  1.0 -0.1497872388
C  C141  1  0.20920000  0.71860000  0.58340000  1.0 0.1497001115
C  C142  1  0.24590000  0.73870000  0.57230000  1.0 -0.0492545983
C  C143  1  0.25810000  0.74690000  0.53200000  1.0 0.1687321968
C  C144  1  0.29700000  0.76890000  0.51880000  1.0 -0.1916120767
C  C145  1  0.47380000  0.40070000  0.67490000  1.0 0.1687321968
C  C146  1  0.43580000  0.37280000  0.67740000  1.0 -0.1984436728
C  C147  1  0.39900000  0.39860000  0.67670000  1.0 -0.1916120767
C  C148  1  0.41380000  0.44460000  0.67535000  1.0 0.1687321968
C  C149  1  0.38640000  0.48180000  0.67576000  1.0 -0.06860232
C  C150  1  0.33681000  0.47563000  0.67390000  1.0 0.0805172422
C  C151  1  0.31384000  0.48390000  0.63950000  1.0 -0.1497872388
C  C152  1  0.26799000  0.47670000  0.63762000  1.0 -0.1007728072
C  C153  1  0.24509000  0.46130000  0.67015000  1.0 -0.1083223678
C  C154  1  0.26806000  0.45305000  0.70456000  1.0 -0.0582038823
C  C155  1  0.31392000  0.46021000  0.70643000  1.0 -0.1387573703
C  C156  1  0.24250000  0.44040000  0.73910000  1.0 0.5888299576
C  C157  1  0.19960000  0.34660000  0.82900000  1.0 0.5613038882
C  C158  1  0.19530000  0.30370000  0.84870000  1.0 -0.0328207737
C  C159  1  0.15880000  0.27620000  0.84180000  1.0 -0.1007728072
C  C160  1  0.15270000  0.23780000  0.86390000  1.0 -0.0928047222
C  C161  1  0.18310000  0.22700000  0.89300000  1.0 -0.1387573703
C  C162  1  0.21960000  0.25460000  0.90000000  1.0 0.0805172422
C  C163  1  0.22570000  0.29300000  0.87780000  1.0 -0.1497872388
C  C164  1  0.16900000  0.47820000  0.83333000  1.0 0.5613038882
C  C165  1  0.14360000  0.51340000  0.85260000  1.0 -0.0492545983
C  C166  1  0.09820000  0.51890000  0.84540000  1.0 -0.1007728072
C  C167  1  0.07420000  0.55130000  0.86530000  1.0 -0.1007728072
C  C168  1  0.09550000  0.57830000  0.89250000  1.0 -0.1387573703
C  C169  1  0.14090000  0.57280000  0.89980000  1.0 0.0893184326
C  C170  1  0.16500000  0.54040000  0.87980000  1.0 -0.1497872388
C  C171  1  0.13200000  0.55020000  0.98140000  1.0 -0.180854995
C  C172  1  0.15540000  0.59070000  0.96890000  1.0 0.1876122344
C  C173  1  0.16040000  0.60480000  0.92950000  1.0 -0.1007728072
C  C174  1  0.18200000  0.64290000  0.91830000  1.0 0.2241656545
C  C175  1  0.18840000  0.65680000  0.87760000  1.0 -0.2142672494
C  C176  1  0.21010000  0.69820000  0.87680000  1.0 -0.1497872388
C  C177  1  0.21860000  0.70920000  0.91660000  1.0 0.1497001115
C  C178  1  0.23870000  0.74590000  0.92770000  1.0 -0.0492545983
C  C179  1  0.24690000  0.75810000  0.96800000  1.0 0.1687321968
C  C180  1  0.26890000  0.79700000  0.98120000  1.0 -0.1916120767
C  C181  1  0.52620000  0.59930000  0.67490000  1.0 0.1687321968
C  C182  1  0.56420000  0.62720000  0.67740000  1.0 -0.1984436728
C  C183  1  0.60100000  0.60140000  0.67670000  1.0 -0.1916120767
C  C184  1  0.58620000  0.55540000  0.67535000  1.0 0.1687321968
C  C185  1  0.61360000  0.51820000  0.67576000  1.0 -0.06860232
C  C186  1  0.66319000  0.52437000  0.67390000  1.0 0.0805172422
C  C187  1  0.68616000  0.51610000  0.63950000  1.0 -0.1497872388
C  C188  1  0.73201000  0.52330000  0.63762000  1.0 -0.1007728072
C  C189  1  0.75491000  0.53870000  0.67015000  1.0 -0.1083223678
C  C190  1  0.73194000  0.54695000  0.70456000  1.0 -0.0582038823
C  C191  1  0.68608000  0.53979000  0.70643000  1.0 -0.1387573703
C  C192  1  0.75750000  0.55960000  0.73910000  1.0 0.5888299576
C  C193  1  0.80040000  0.65340000  0.82900000  1.0 0.5613038882
C  C194  1  0.80470000  0.69630000  0.84870000  1.0 -0.0328207737
C  C195  1  0.84120000  0.72380000  0.84180000  1.0 -0.1007728072
C  C196  1  0.84730000  0.76220000  0.86390000  1.0 -0.0928047222
C  C197  1  0.81690000  0.77300000  0.89300000  1.0 -0.1387573703
C  C198  1  0.78040000  0.74540000  0.90000000  1.0 0.0805172422
C  C199  1  0.77430000  0.70700000  0.87780000  1.0 -0.1497872388
C  C200  1  0.83100000  0.52180000  0.83333000  1.0 0.5613038882
C  C201  1  0.85640000  0.48660000  0.85260000  1.0 -0.0492545983
C  C202  1  0.90180000  0.48110000  0.84540000  1.0 -0.1007728072
C  C203  1  0.92580000  0.44870000  0.86530000  1.0 -0.1007728072
C  C204  1  0.90450000  0.42170000  0.89250000  1.0 -0.1387573703
C  C205  1  0.85910000  0.42720000  0.89980000  1.0 0.0893184326
C  C206  1  0.83500000  0.45960000  0.87980000  1.0 -0.1497872388
C  C207  1  0.86800000  0.44980000  0.98140000  1.0 -0.180854995
C  C208  1  0.84460000  0.40930000  0.96890000  1.0 0.1876122344
C  C209  1  0.83960000  0.39520000  0.92950000  1.0 -0.1007728072
C  C210  1  0.81800000  0.35710000  0.91830000  1.0 0.2241656545
C  C211  1  0.81160000  0.34320000  0.87760000  1.0 -0.2142672494
C  C212  1  0.78990000  0.30180000  0.87680000  1.0 -0.1497872388
C  C213  1  0.78140000  0.29080000  0.91660000  1.0 0.1497001115
C  C214  1  0.76130000  0.25410000  0.92770000  1.0 -0.0492545983
C  C215  1  0.75310000  0.24190000  0.96800000  1.0 0.1687321968
C  C216  1  0.73110000  0.20300000  0.98120000  1.0 -0.1916120767
C  C217  1  0.40070000  0.52620000  0.67490000  1.0 0.1687321968
C  C218  1  0.37280000  0.56420000  0.67740000  1.0 -0.1984436728
C  C219  1  0.39860000  0.60100000  0.67670000  1.0 -0.1916120767
C  C220  1  0.44460000  0.58620000  0.67535000  1.0 0.1648404233
C  C221  1  0.48180000  0.61360000  0.67576000  1.0 -0.06860232
C  C222  1  0.47563000  0.66319000  0.67390000  1.0 0.0805172422
C  C223  1  0.48390000  0.68616000  0.63950000  1.0 -0.1497872388
C  C224  1  0.47670000  0.73201000  0.63762000  1.0 -0.1007728072
C  C225  1  0.46130000  0.75491000  0.67015000  1.0 -0.1083223678
C  C226  1  0.45305000  0.73194000  0.70456000  1.0 -0.0582038823
C  C227  1  0.46021000  0.68608000  0.70643000  1.0 -0.1387573703
C  C228  1  0.44040000  0.75750000  0.73910000  1.0 0.5888299576
C  C229  1  0.34660000  0.80040000  0.82900000  1.0 0.5613038882
C  C230  1  0.30370000  0.80470000  0.84870000  1.0 -0.0328207737
C  C231  1  0.27620000  0.84120000  0.84180000  1.0 -0.1007728072
C  C232  1  0.23780000  0.84730000  0.86390000  1.0 -0.0928047222
C  C233  1  0.22700000  0.81690000  0.89300000  1.0 -0.1387573703
C  C234  1  0.25460000  0.78040000  0.90000000  1.0 0.0805172422
C  C235  1  0.29300000  0.77430000  0.87780000  1.0 -0.1497872388
C  C236  1  0.47820000  0.83100000  0.83333000  1.0 0.5613038882
C  C237  1  0.51340000  0.85640000  0.85260000  1.0 -0.0492545983
C  C238  1  0.51890000  0.90180000  0.84540000  1.0 -0.1007728072
C  C239  1  0.55130000  0.92580000  0.86530000  1.0 -0.1007728072
C  C240  1  0.57830000  0.90450000  0.89250000  1.0 -0.1387573703
C  C241  1  0.57280000  0.85910000  0.89980000  1.0 0.0893184326
C  C242  1  0.54040000  0.83500000  0.87980000  1.0 -0.1497872388
C  C243  1  0.55020000  0.86800000  0.98140000  1.0 -0.180854995
C  C244  1  0.59070000  0.84460000  0.96890000  1.0 0.1876122344
C  C245  1  0.60480000  0.83960000  0.92950000  1.0 -0.1007728072
C  C246  1  0.64290000  0.81800000  0.91830000  1.0 0.2241656545
C  C247  1  0.65680000  0.81160000  0.87760000  1.0 -0.2142672494
C  C248  1  0.69820000  0.78990000  0.87680000  1.0 -0.1497872388
C  C249  1  0.70920000  0.78140000  0.91660000  1.0 0.1497001115
C  C250  1  0.74590000  0.76130000  0.92770000  1.0 -0.0492545983
C  C251  1  0.75810000  0.75310000  0.96800000  1.0 0.1687321968
C  C252  1  0.79700000  0.73110000  0.98120000  1.0 -0.1916120767
C  C253  1  0.59930000  0.47380000  0.67490000  1.0 0.1687321968
C  C254  1  0.62720000  0.43580000  0.67740000  1.0 -0.1984436728
C  C255  1  0.60140000  0.39900000  0.67670000  1.0 -0.1916120767
C  C256  1  0.55540000  0.41380000  0.67535000  1.0 0.1687321968
C  C257  1  0.51820000  0.38640000  0.67576000  1.0 -0.06860232
C  C258  1  0.52437000  0.33681000  0.67390000  1.0 0.0805172422
C  C259  1  0.51610000  0.31384000  0.63950000  1.0 -0.1497872388
C  C260  1  0.52330000  0.26799000  0.63762000  1.0 -0.1007728072
C  C261  1  0.53870000  0.24509000  0.67015000  1.0 -0.1083223678
C  C262  1  0.54695000  0.26806000  0.70456000  1.0 -0.0582038823
C  C263  1  0.53979000  0.31392000  0.70643000  1.0 -0.1387573703
C  C264  1  0.55960000  0.24250000  0.73910000  1.0 0.5888299576
C  C265  1  0.65340000  0.19960000  0.82900000  1.0 0.5613038882
C  C266  1  0.69630000  0.19530000  0.84870000  1.0 -0.0328207737
C  C267  1  0.72380000  0.15880000  0.84180000  1.0 -0.1007728072
C  C268  1  0.76220000  0.15270000  0.86390000  1.0 -0.0928047222
C  C269  1  0.77300000  0.18310000  0.89300000  1.0 -0.1387573703
C  C270  1  0.74540000  0.21960000  0.90000000  1.0 0.0805172422
C  C271  1  0.70700000  0.22570000  0.87780000  1.0 -0.1497872388
C  C272  1  0.52180000  0.16900000  0.83333000  1.0 0.5613038882
C  C273  1  0.48660000  0.14360000  0.85260000  1.0 -0.0492545983
C  C274  1  0.48110000  0.09820000  0.84540000  1.0 -0.1007728072
C  C275  1  0.44870000  0.07420000  0.86530000  1.0 -0.1007728072
C  C276  1  0.42170000  0.09550000  0.89250000  1.0 -0.1387573703
C  C277  1  0.42720000  0.14090000  0.89980000  1.0 0.0893184326
C  C278  1  0.45960000  0.16500000  0.87980000  1.0 -0.1497872388
C  C279  1  0.44980000  0.13200000  0.98140000  1.0 -0.180854995
C  C280  1  0.40930000  0.15540000  0.96890000  1.0 0.1876122344
C  C281  1  0.39520000  0.16040000  0.92950000  1.0 -0.1007728072
C  C282  1  0.35710000  0.18200000  0.91830000  1.0 0.2241656545
C  C283  1  0.34320000  0.18840000  0.87760000  1.0 -0.2142672494
C  C284  1  0.30180000  0.21010000  0.87680000  1.0 -0.1497872388
C  C285  1  0.29080000  0.21860000  0.91660000  1.0 0.1497001115
C  C286  1  0.25410000  0.23870000  0.92770000  1.0 -0.0492545983
C  C287  1  0.24190000  0.24690000  0.96800000  1.0 0.1687321968
C  C288  1  0.20300000  0.26890000  0.98120000  1.0 -0.1916120767
C  C289  1  0.97380000  0.09930000  0.17490000  1.0 0.1687321968
C  C290  1  0.93580000  0.12720000  0.17740000  1.0 -0.1984436728
C  C291  1  0.89900000  0.10140000  0.17670000  1.0 -0.1916120767
C  C292  1  0.91380000  0.05540000  0.17535000  1.0 0.1648404233
C  C293  1  0.88640000  0.01820000  0.17576000  1.0 -0.06860232
C  C294  1  0.83681000  0.02437000  0.17390000  1.0 0.0805172422
C  C295  1  0.81384000  0.01610000  0.13950000  1.0 -0.1497872388
C  C296  1  0.76799000  0.02330000  0.13762000  1.0 -0.1007728072
C  C297  1  0.74509000  0.03870000  0.17015000  1.0 -0.1083223678
C  C298  1  0.76806000  0.04695000  0.20456000  1.0 -0.0582038823
C  C299  1  0.81392000  0.03979000  0.20643000  1.0 -0.1387573703
C  C300  1  0.74250000  0.05960000  0.23910000  1.0 0.5888299576
C  C301  1  0.69960000  0.15340000  0.32900000  1.0 0.5613038882
C  C302  1  0.69530000  0.19630000  0.34870000  1.0 -0.0328207737
C  C303  1  0.65880000  0.22380000  0.34180000  1.0 -0.1007728072
C  C304  1  0.65270000  0.26220000  0.36390000  1.0 -0.0928047222
C  C305  1  0.68310000  0.27300000  0.39300000  1.0 -0.1387573703
C  C306  1  0.71960000  0.24540000  0.40000000  1.0 0.0805172422
C  C307  1  0.72570000  0.20700000  0.37780000  1.0 -0.1497872388
C  C308  1  0.66900000  0.02180000  0.33333333  1.0 0.5613038882
C  C309  1  0.64360000  0.98660000  0.35260000  1.0 -0.0492545983
C  C310  1  0.59820000  0.98110000  0.34540000  1.0 -0.1007728072
C  C311  1  0.57420000  0.94870000  0.36530000  1.0 -0.1007728072
C  C312  1  0.59550000  0.92170000  0.39250000  1.0 -0.1387573703
C  C313  1  0.64090000  0.92720000  0.39980000  1.0 0.0893184326
C  C314  1  0.66500000  0.95960000  0.37980000  1.0 -0.1497872388
C  C315  1  0.63200000  0.94980000  0.48140000  1.0 -0.180854995
C  C316  1  0.65540000  0.90930000  0.46890000  1.0 0.1876122344
C  C317  1  0.66040000  0.89520000  0.42950000  1.0 -0.1007728072
C  C318  1  0.68200000  0.85710000  0.41830000  1.0 0.2241656545
C  C319  1  0.68840000  0.84320000  0.37760000  1.0 -0.2142672494
C  C320  1  0.71010000  0.80180000  0.37680000  1.0 -0.1497872388
C  C321  1  0.71860000  0.79080000  0.41660000  1.0 0.1497001115
C  C322  1  0.73870000  0.75410000  0.42770000  1.0 -0.0492545983
C  C323  1  0.74690000  0.74190000  0.46800000  1.0 0.1687321968
C  C324  1  0.76890000  0.70300000  0.48120000  1.0 -0.1916120767
C  C325  1  0.02620000  0.90070000  0.17490000  1.0 0.1687321968
C  C326  1  0.06420000  0.87280000  0.17740000  1.0 -0.1984436728
C  C327  1  0.10100000  0.89860000  0.17670000  1.0 -0.1916120767
C  C328  1  0.08620000  0.94460000  0.17535000  1.0 0.1648404233
C  C329  1  0.11360000  0.98180000  0.17576000  1.0 -0.06860232
C  C330  1  0.16319000  0.97563000  0.17390000  1.0 0.0805172422
C  C331  1  0.18616000  0.98390000  0.13950000  1.0 -0.1497872388
C  C332  1  0.23201000  0.97670000  0.13762000  1.0 -0.1007728072
C  C333  1  0.25491000  0.96130000  0.17015000  1.0 -0.1083223678
C  C334  1  0.23194000  0.95305000  0.20456000  1.0 -0.0582038823
C  C335  1  0.18608000  0.96021000  0.20643000  1.0 -0.1387573703
C  C336  1  0.25750000  0.94040000  0.23910000  1.0 0.5888299576
C  C337  1  0.30040000  0.84660000  0.32900000  1.0 0.5613038882
C  C338  1  0.30470000  0.80370000  0.34870000  1.0 -0.0328207737
C  C339  1  0.34120000  0.77620000  0.34180000  1.0 -0.1007728072
C  C340  1  0.34730000  0.73780000  0.36390000  1.0 -0.0928047222
C  C341  1  0.31690000  0.72700000  0.39300000  1.0 -0.1387573703
C  C342  1  0.28040000  0.75460000  0.40000000  1.0 0.0805172422
C  C343  1  0.27430000  0.79300000  0.37780000  1.0 -0.1497872388
C  C344  1  0.33100000  0.97820000  0.33333333  1.0 0.5613038882
C  C345  1  0.35640000  0.01340000  0.35260000  1.0 -0.0492545983
C  C346  1  0.40180000  0.01890000  0.34540000  1.0 -0.1007728072
C  C347  1  0.42580000  0.05130000  0.36530000  1.0 -0.1007728072
C  C348  1  0.40450000  0.07830000  0.39250000  1.0 -0.1387573703
C  C349  1  0.35910000  0.07280000  0.39980000  1.0 0.0893184326
C  C350  1  0.33500000  0.04040000  0.37980000  1.0 -0.1497872388
C  C351  1  0.36800000  0.05020000  0.48140000  1.0 -0.180854995
C  C352  1  0.34460000  0.09070000  0.46890000  1.0 0.1876122344
C  C353  1  0.33960000  0.10480000  0.42950000  1.0 -0.1007728072
C  C354  1  0.31800000  0.14290000  0.41830000  1.0 0.2241656545
C  C355  1  0.31160000  0.15680000  0.37760000  1.0 -0.2142672494
C  C356  1  0.28990000  0.19820000  0.37680000  1.0 -0.1497872388
C  C357  1  0.28140000  0.20920000  0.41660000  1.0 0.1497001115
C  C358  1  0.26130000  0.24590000  0.42770000  1.0 -0.0492545983
C  C359  1  0.25310000  0.25810000  0.46800000  1.0 0.1687321968
C  C360  1  0.23110000  0.29700000  0.48120000  1.0 -0.1916120767
C  C361  1  0.90070000  0.97380000  0.17490000  1.0 0.1687321968
C  C362  1  0.87280000  0.93580000  0.17740000  1.0 -0.1984436728
C  C363  1  0.89860000  0.89900000  0.17670000  1.0 -0.1916120767
C  C364  1  0.94460000  0.91380000  0.17535000  1.0 0.1648404233
C  C365  1  0.98180000  0.88640000  0.17576000  1.0 -0.06860232
C  C366  1  0.97563000  0.83681000  0.17390000  1.0 0.0805172422
C  C367  1  0.98390000  0.81384000  0.13950000  1.0 -0.1497872388
C  C368  1  0.97670000  0.76799000  0.13762000  1.0 -0.1007728072
C  C369  1  0.96130000  0.74509000  0.17015000  1.0 -0.1083223678
C  C370  1  0.95305000  0.76806000  0.20456000  1.0 -0.0582038823
C  C371  1  0.96021000  0.81392000  0.20643000  1.0 -0.1387573703
C  C372  1  0.94040000  0.74250000  0.23910000  1.0 0.5888299576
C  C373  1  0.84660000  0.69960000  0.32900000  1.0 0.5613038882
C  C374  1  0.80370000  0.69530000  0.34870000  1.0 -0.0328207737
C  C375  1  0.77620000  0.65880000  0.34180000  1.0 -0.1007728072
C  C376  1  0.73780000  0.65270000  0.36390000  1.0 -0.0928047222
C  C377  1  0.72700000  0.68310000  0.39300000  1.0 -0.1387573703
C  C378  1  0.75460000  0.71960000  0.40000000  1.0 0.0805172422
C  C379  1  0.79300000  0.72570000  0.37780000  1.0 -0.1497872388
C  C380  1  0.97820000  0.66900000  0.33333333  1.0 0.5613038882
C  C381  1  0.01340000  0.64360000  0.35260000  1.0 -0.0492545983
C  C382  1  0.01890000  0.59820000  0.34540000  1.0 -0.1007728072
C  C383  1  0.05130000  0.57420000  0.36530000  1.0 -0.1007728072
C  C384  1  0.07830000  0.59550000  0.39250000  1.0 -0.1387573703
C  C385  1  0.07280000  0.64090000  0.39980000  1.0 0.0893184326
C  C386  1  0.04040000  0.66500000  0.37980000  1.0 -0.1497872388
C  C387  1  0.05020000  0.63200000  0.48140000  1.0 -0.180854995
C  C388  1  0.09070000  0.65540000  0.46890000  1.0 0.1876122344
C  C389  1  0.10480000  0.66040000  0.42950000  1.0 -0.1007728072
C  C390  1  0.14290000  0.68200000  0.41830000  1.0 0.2241656545
C  C391  1  0.15680000  0.68840000  0.37760000  1.0 -0.2142672494
C  C392  1  0.19820000  0.71010000  0.37680000  1.0 -0.1497872388
C  C393  1  0.20920000  0.71860000  0.41660000  1.0 0.1497001115
C  C394  1  0.24590000  0.73870000  0.42770000  1.0 -0.0492545983
C  C395  1  0.25810000  0.74690000  0.46800000  1.0 0.1687321968
C  C396  1  0.29700000  0.76890000  0.48120000  1.0 -0.1916120767
C  C397  1  0.09930000  0.02620000  0.17490000  1.0 0.1687321968
C  C398  1  0.12720000  0.06420000  0.17740000  1.0 -0.1984436728
C  C399  1  0.10140000  0.10100000  0.17670000  1.0 -0.1916120767
C  C400  1  0.05540000  0.08620000  0.17535000  1.0 0.1687321968
C  C401  1  0.01820000  0.11360000  0.17576000  1.0 -0.06860232
C  C402  1  0.02437000  0.16319000  0.17390000  1.0 0.0805172422
C  C403  1  0.01610000  0.18616000  0.13950000  1.0 -0.1497872388
C  C404  1  0.02330000  0.23201000  0.13762000  1.0 -0.1007728072
C  C405  1  0.03870000  0.25491000  0.17015000  1.0 -0.1083223678
C  C406  1  0.04695000  0.23194000  0.20456000  1.0 -0.0582038823
C  C407  1  0.03979000  0.18608000  0.20643000  1.0 -0.1387573703
C  C408  1  0.05960000  0.25750000  0.23910000  1.0 0.5888299576
C  C409  1  0.15340000  0.30040000  0.32900000  1.0 0.5613038882
C  C410  1  0.19630000  0.30470000  0.34870000  1.0 -0.0328207737
C  C411  1  0.22380000  0.34120000  0.34180000  1.0 -0.1007728072
C  C412  1  0.26220000  0.34730000  0.36390000  1.0 -0.0928047222
C  C413  1  0.27300000  0.31690000  0.39300000  1.0 -0.1387573703
C  C414  1  0.24540000  0.28040000  0.40000000  1.0 0.0805172422
C  C415  1  0.20700000  0.27430000  0.37780000  1.0 -0.1497872388
C  C416  1  0.02180000  0.33100000  0.33333333  1.0 0.5613038882
C  C417  1  0.98660000  0.35640000  0.35260000  1.0 -0.0492545983
C  C418  1  0.98110000  0.40180000  0.34540000  1.0 -0.1007728072
C  C419  1  0.94870000  0.42580000  0.36530000  1.0 -0.1007728072
C  C420  1  0.92170000  0.40450000  0.39250000  1.0 -0.1387573703
C  C421  1  0.92720000  0.35910000  0.39980000  1.0 0.0893184326
C  C422  1  0.95960000  0.33500000  0.37980000  1.0 -0.1497872388
C  C423  1  0.94980000  0.36800000  0.48140000  1.0 -0.180854995
C  C424  1  0.90930000  0.34460000  0.46890000  1.0 0.1876122344
C  C425  1  0.89520000  0.33960000  0.42950000  1.0 -0.1007728072
C  C426  1  0.85710000  0.31800000  0.41830000  1.0 0.2241656545
C  C427  1  0.84320000  0.31160000  0.37760000  1.0 -0.2142672494
C  C428  1  0.80180000  0.28990000  0.37680000  1.0 -0.1497872388
C  C429  1  0.79080000  0.28140000  0.41660000  1.0 0.1497001115
C  C430  1  0.75410000  0.26130000  0.42770000  1.0 -0.0492545983
C  C431  1  0.74190000  0.25310000  0.46800000  1.0 0.1687321968
C  C432  1  0.70300000  0.23110000  0.48120000  1.0 -0.1916120767
C  C433  1  0.52620000  0.59930000  0.32510000  1.0 0.1687321968
C  C434  1  0.56420000  0.62720000  0.32260000  1.0 -0.1984436728
C  C435  1  0.60100000  0.60140000  0.32330000  1.0 -0.1916120767
C  C436  1  0.58620000  0.55540000  0.32465000  1.0 0.1687321968
C  C437  1  0.61360000  0.51820000  0.32424000  1.0 -0.06860232
C  C438  1  0.66319000  0.52437000  0.32610000  1.0 0.0805172422
C  C439  1  0.68616000  0.51610000  0.36050000  1.0 -0.1497872388
C  C440  1  0.73201000  0.52330000  0.36238000  1.0 -0.1007728072
C  C441  1  0.75491000  0.53870000  0.32985000  1.0 -0.1083223678
C  C442  1  0.73194000  0.54695000  0.29544000  1.0 -0.0582038823
C  C443  1  0.68608000  0.53979000  0.29357000  1.0 -0.1387573703
C  C444  1  0.75750000  0.55960000  0.26090000  1.0 0.5888299576
C  C445  1  0.80040000  0.65340000  0.17100000  1.0 0.5613038882
C  C446  1  0.80470000  0.69630000  0.15130000  1.0 -0.0328207737
C  C447  1  0.84120000  0.72380000  0.15820000  1.0 -0.1007728072
C  C448  1  0.84730000  0.76220000  0.13610000  1.0 -0.0928047222
C  C449  1  0.81690000  0.77300000  0.10700000  1.0 -0.1387573703
C  C450  1  0.78040000  0.74540000  0.10000000  1.0 0.0805172422
C  C451  1  0.77430000  0.70700000  0.12220000  1.0 -0.1497872388
C  C452  1  0.83100000  0.52180000  0.16667000  1.0 0.5613038882
C  C453  1  0.85640000  0.48660000  0.14740000  1.0 -0.0492545983
C  C454  1  0.90180000  0.48110000  0.15460000  1.0 -0.1007728072
C  C455  1  0.92580000  0.44870000  0.13470000  1.0 -0.1007728072
C  C456  1  0.90450000  0.42170000  0.10750000  1.0 -0.1387573703
C  C457  1  0.85910000  0.42720000  0.10020000  1.0 0.0893184326
C  C458  1  0.83500000  0.45960000  0.12020000  1.0 -0.1497872388
C  C459  1  0.86800000  0.44980000  0.01860000  1.0 -0.180854995
C  C460  1  0.84460000  0.40930000  0.03110000  1.0 0.1876122344
C  C461  1  0.83960000  0.39520000  0.07050000  1.0 -0.1007728072
C  C462  1  0.81800000  0.35710000  0.08170000  1.0 0.2241656545
C  C463  1  0.81160000  0.34320000  0.12240000  1.0 -0.2142672494
C  C464  1  0.78990000  0.30180000  0.12320000  1.0 -0.1497872388
C  C465  1  0.78140000  0.29080000  0.08340000  1.0 0.1497001115
C  C466  1  0.76130000  0.25410000  0.07230000  1.0 -0.0492545983
C  C467  1  0.75310000  0.24190000  0.03200000  1.0 0.1687321968
C  C468  1  0.73110000  0.20300000  0.01880000  1.0 -0.1916120767
C  C469  1  0.47380000  0.40070000  0.32510000  1.0 0.1687321968
C  C470  1  0.43580000  0.37280000  0.32260000  1.0 -0.1984436728
C  C471  1  0.39900000  0.39860000  0.32330000  1.0 -0.1916120767
C  C472  1  0.41380000  0.44460000  0.32465000  1.0 0.1687321968
C  C473  1  0.38640000  0.48180000  0.32424000  1.0 -0.06860232
C  C474  1  0.33681000  0.47563000  0.32610000  1.0 0.0805172422
C  C475  1  0.31384000  0.48390000  0.36050000  1.0 -0.1497872388
C  C476  1  0.26799000  0.47670000  0.36238000  1.0 -0.1007728072
C  C477  1  0.24509000  0.46130000  0.32985000  1.0 -0.1083223678
C  C478  1  0.26806000  0.45305000  0.29544000  1.0 -0.0582038823
C  C479  1  0.31392000  0.46021000  0.29357000  1.0 -0.1387573703
C  C480  1  0.24250000  0.44040000  0.26090000  1.0 0.5888299576
C  C481  1  0.19960000  0.34660000  0.17100000  1.0 0.5613038882
C  C482  1  0.19530000  0.30370000  0.15130000  1.0 -0.0328207737
C  C483  1  0.15880000  0.27620000  0.15820000  1.0 -0.1007728072
C  C484  1  0.15270000  0.23780000  0.13610000  1.0 -0.0928047222
C  C485  1  0.18310000  0.22700000  0.10700000  1.0 -0.1387573703
C  C486  1  0.21960000  0.25460000  0.10000000  1.0 0.0805172422
C  C487  1  0.22570000  0.29300000  0.12220000  1.0 -0.1497872388
C  C488  1  0.16900000  0.47820000  0.16667000  1.0 0.5613038882
C  C489  1  0.14360000  0.51340000  0.14740000  1.0 -0.0492545983
C  C490  1  0.09820000  0.51890000  0.15460000  1.0 -0.1007728072
C  C491  1  0.07420000  0.55130000  0.13470000  1.0 -0.1007728072
C  C492  1  0.09550000  0.57830000  0.10750000  1.0 -0.1387573703
C  C493  1  0.14090000  0.57280000  0.10020000  1.0 0.0893184326
C  C494  1  0.16500000  0.54040000  0.12020000  1.0 -0.1497872388
C  C495  1  0.13200000  0.55020000  0.01860000  1.0 -0.180854995
C  C496  1  0.15540000  0.59070000  0.03110000  1.0 0.1876122344
C  C497  1  0.16040000  0.60480000  0.07050000  1.0 -0.1007728072
C  C498  1  0.18200000  0.64290000  0.08170000  1.0 0.2241656545
C  C499  1  0.18840000  0.65680000  0.12240000  1.0 -0.2142672494
C  C500  1  0.21010000  0.69820000  0.12320000  1.0 -0.1497872388
C  C501  1  0.21860000  0.70920000  0.08340000  1.0 0.1497001115
C  C502  1  0.23870000  0.74590000  0.07230000  1.0 -0.0492545983
C  C503  1  0.24690000  0.75810000  0.03200000  1.0 0.1687321968
C  C504  1  0.26890000  0.79700000  0.01880000  1.0 -0.1916120767
C  C505  1  0.59930000  0.47380000  0.32510000  1.0 0.1687321968
C  C506  1  0.62720000  0.43580000  0.32260000  1.0 -0.1984436728
C  C507  1  0.60140000  0.39900000  0.32330000  1.0 -0.1916120767
C  C508  1  0.55540000  0.41380000  0.32465000  1.0 0.1687321968
C  C509  1  0.51820000  0.38640000  0.32424000  1.0 -0.06860232
C  C510  1  0.52437000  0.33681000  0.32610000  1.0 0.0805172422
C  C511  1  0.51610000  0.31384000  0.36050000  1.0 -0.1497872388
C  C512  1  0.52330000  0.26799000  0.36238000  1.0 -0.1007728072
C  C513  1  0.53870000  0.24509000  0.32985000  1.0 -0.1083223678
C  C514  1  0.54695000  0.26806000  0.29544000  1.0 -0.0582038823
C  C515  1  0.53979000  0.31392000  0.29357000  1.0 -0.1387573703
C  C516  1  0.55960000  0.24250000  0.26090000  1.0 0.5888299576
C  C517  1  0.65340000  0.19960000  0.17100000  1.0 0.5613038882
C  C518  1  0.69630000  0.19530000  0.15130000  1.0 -0.0328207737
C  C519  1  0.72380000  0.15880000  0.15820000  1.0 -0.1007728072
C  C520  1  0.76220000  0.15270000  0.13610000  1.0 -0.0928047222
C  C521  1  0.77300000  0.18310000  0.10700000  1.0 -0.1387573703
C  C522  1  0.74540000  0.21960000  0.10000000  1.0 0.0805172422
C  C523  1  0.70700000  0.22570000  0.12220000  1.0 -0.1497872388
C  C524  1  0.52180000  0.16900000  0.16667000  1.0 0.5613038882
C  C525  1  0.48660000  0.14360000  0.14740000  1.0 -0.0492545983
C  C526  1  0.48110000  0.09820000  0.15460000  1.0 -0.1007728072
C  C527  1  0.44870000  0.07420000  0.13470000  1.0 -0.1007728072
C  C528  1  0.42170000  0.09550000  0.10750000  1.0 -0.1387573703
C  C529  1  0.42720000  0.14090000  0.10020000  1.0 0.0893184326
C  C530  1  0.45960000  0.16500000  0.12020000  1.0 -0.1497872388
C  C531  1  0.44980000  0.13200000  0.01860000  1.0 -0.180854995
C  C532  1  0.40930000  0.15540000  0.03110000  1.0 0.1876122344
C  C533  1  0.39520000  0.16040000  0.07050000  1.0 -0.1007728072
C  C534  1  0.35710000  0.18200000  0.08170000  1.0 0.2241656545
C  C535  1  0.34320000  0.18840000  0.12240000  1.0 -0.2142672494
C  C536  1  0.30180000  0.21010000  0.12320000  1.0 -0.1497872388
C  C537  1  0.29080000  0.21860000  0.08340000  1.0 0.1497001115
C  C538  1  0.25410000  0.23870000  0.07230000  1.0 -0.0492545983
C  C539  1  0.24190000  0.24690000  0.03200000  1.0 0.1687321968
C  C540  1  0.20300000  0.26890000  0.01880000  1.0 -0.1916120767
C  C541  1  0.40070000  0.52620000  0.32510000  1.0 0.1687321968
C  C542  1  0.37280000  0.56420000  0.32260000  1.0 -0.1984436728
C  C543  1  0.39860000  0.60100000  0.32330000  1.0 -0.1916120767
C  C544  1  0.44460000  0.58620000  0.32465000  1.0 0.1648404233
C  C545  1  0.48180000  0.61360000  0.32424000  1.0 -0.06860232
C  C546  1  0.47563000  0.66319000  0.32610000  1.0 0.0805172422
C  C547  1  0.48390000  0.68616000  0.36050000  1.0 -0.1497872388
C  C548  1  0.47670000  0.73201000  0.36238000  1.0 -0.1007728072
C  C549  1  0.46130000  0.75491000  0.32985000  1.0 -0.1083223678
C  C550  1  0.45305000  0.73194000  0.29544000  1.0 -0.0582038823
C  C551  1  0.46021000  0.68608000  0.29357000  1.0 -0.1387573703
C  C552  1  0.44040000  0.75750000  0.26090000  1.0 0.5888299576
C  C553  1  0.34660000  0.80040000  0.17100000  1.0 0.5613038882
C  C554  1  0.30370000  0.80470000  0.15130000  1.0 -0.0328207737
C  C555  1  0.27620000  0.84120000  0.15820000  1.0 -0.1007728072
C  C556  1  0.23780000  0.84730000  0.13610000  1.0 -0.0928047222
C  C557  1  0.22700000  0.81690000  0.10700000  1.0 -0.1387573703
C  C558  1  0.25460000  0.78040000  0.10000000  1.0 0.0805172422
C  C559  1  0.29300000  0.77430000  0.12220000  1.0 -0.1497872388
C  C560  1  0.47820000  0.83100000  0.16667000  1.0 0.5613038882
C  C561  1  0.51340000  0.85640000  0.14740000  1.0 -0.0492545983
C  C562  1  0.51890000  0.90180000  0.15460000  1.0 -0.1007728072
C  C563  1  0.55130000  0.92580000  0.13470000  1.0 -0.1007728072
C  C564  1  0.57830000  0.90450000  0.10750000  1.0 -0.1387573703
C  C565  1  0.57280000  0.85910000  0.10020000  1.0 0.0893184326
C  C566  1  0.54040000  0.83500000  0.12020000  1.0 -0.1497872388
C  C567  1  0.55020000  0.86800000  0.01860000  1.0 -0.180854995
C  C568  1  0.59070000  0.84460000  0.03110000  1.0 0.1876122344
C  C569  1  0.60480000  0.83960000  0.07050000  1.0 -0.1007728072
C  C570  1  0.64290000  0.81800000  0.08170000  1.0 0.2241656545
C  C571  1  0.65680000  0.81160000  0.12240000  1.0 -0.2142672494
C  C572  1  0.69820000  0.78990000  0.12320000  1.0 -0.1497872388
C  C573  1  0.70920000  0.78140000  0.08340000  1.0 0.1497001115
C  C574  1  0.74590000  0.76130000  0.07230000  1.0 -0.0492545983
C  C575  1  0.75810000  0.75310000  0.03200000  1.0 0.1687321968
C  C576  1  0.79700000  0.73110000  0.01880000  1.0 -0.1916120767
C  C577  1  0.00000000  0.00000000  0.97900000  1.0 0.0477815436
C  C578  1  0.50000000  0.50000000  0.52100000  1.0 0.0477815436
C  C579  1  0.00000000  0.00000000  0.02100000  1.0 0.0477815436
C  C580  1  0.50000000  0.50000000  0.47900000  1.0 0.0477815436
C  C581  1  0.20220000  0.95840000  0.58400000  0.45 0.0994099635
C  C582  1  0.20040000  0.95720000  0.54360000  0.45 -0.1916120767
C  C583  1  0.23780000  0.94400000  0.52247000  0.45 0.1102177402
C  C584  1  0.27680000  0.93190000  0.54170000  0.45 -0.1916120767
C  C585  1  0.27850000  0.93310000  0.58210000  0.45 0.0689731564
C  C586  1  0.79780000  0.04160000  0.58400000  0.45 0.0994099635
C  C587  1  0.79960000  0.04280000  0.54360000  0.45 -0.1916120767
C  C588  1  0.76220000  0.05600000  0.52247000  0.45 0.1102177402
C  C589  1  0.72320000  0.06810000  0.54170000  0.45 -0.1916120767
C  C590  1  0.72150000  0.06690000  0.58210000  0.45 0.0689731564
C  C591  1  0.04160000  0.20220000  0.58400000  0.45 0.0994099635
C  C592  1  0.04280000  0.20040000  0.54360000  0.45 -0.1916120767
C  C593  1  0.05600000  0.23780000  0.52247000  0.45 0.1102177402
C  C594  1  0.06810000  0.27680000  0.54170000  0.45 -0.1916120767
C  C595  1  0.06690000  0.27850000  0.58210000  0.45 0.0689731564
C  C596  1  0.95840000  0.79780000  0.58400000  0.45 0.0994099635
C  C597  1  0.95720000  0.79960000  0.54360000  0.45 -0.1916120767
C  C598  1  0.94400000  0.76220000  0.52247000  0.45 0.1102177402
C  C599  1  0.93190000  0.72320000  0.54170000  0.45 -0.1916120767
C  C600  1  0.93310000  0.72150000  0.58210000  0.45 0.0689731564
C  C601  1  0.29780000  0.45840000  0.91600000  0.45 0.0994099635
C  C602  1  0.29960000  0.45720000  0.95640000  0.45 -0.1916120767
C  C603  1  0.26220000  0.44400000  0.97753000  0.45 0.1102177402
C  C604  1  0.22320000  0.43190000  0.95830000  0.45 -0.1916120767
C  C605  1  0.22150000  0.43310000  0.91790000  0.45 0.0689731564
C  C606  1  0.70220000  0.54160000  0.91600000  0.45 0.0994099635
C  C607  1  0.70040000  0.54280000  0.95640000  0.45 -0.1916120767
C  C608  1  0.73780000  0.55600000  0.97753000  0.45 0.1102177402
C  C609  1  0.77680000  0.56810000  0.95830000  0.45 -0.1916120767
C  C610  1  0.77850000  0.56690000  0.91790000  0.45 0.0689731564
C  C611  1  0.45840000  0.70220000  0.91600000  0.45 0.0994099635
C  C612  1  0.45720000  0.70040000  0.95640000  0.45 -0.1916120767
C  C613  1  0.44400000  0.73780000  0.97753000  0.45 0.1102177402
C  C614  1  0.43190000  0.77680000  0.95830000  0.45 -0.1916120767
C  C615  1  0.43310000  0.77850000  0.91790000  0.45 0.0689731564
C  C616  1  0.54160000  0.29780000  0.91600000  0.45 0.0994099635
C  C617  1  0.54280000  0.29960000  0.95640000  0.45 -0.1916120767
C  C618  1  0.55600000  0.26220000  0.97753000  0.45 0.1102177402
C  C619  1  0.56810000  0.22320000  0.95830000  0.45 -0.1916120767
C  C620  1  0.56690000  0.22150000  0.91790000  0.45 0.0689731564
C  C621  1  0.79780000  0.04160000  0.41600000  0.45 0.0994099635
C  C622  1  0.79960000  0.04280000  0.45640000  0.45 -0.1916120767
C  C623  1  0.76220000  0.05600000  0.47753000  0.45 0.1102177402
C  C624  1  0.72320000  0.06810000  0.45830000  0.45 -0.1916120767
C  C625  1  0.72150000  0.06690000  0.41790000  0.45 0.0689731564
C  C626  1  0.20220000  0.95840000  0.41600000  0.45 0.0994099635
C  C627  1  0.20040000  0.95720000  0.45640000  0.45 -0.1916120767
C  C628  1  0.23780000  0.94400000  0.47753000  0.45 0.1102177402
C  C629  1  0.27680000  0.93190000  0.45830000  0.45 -0.1916120767
C  C630  1  0.27850000  0.93310000  0.41790000  0.45 0.0689731564
C  C631  1  0.95840000  0.79780000  0.41600000  0.45 0.0994099635
C  C632  1  0.95720000  0.79960000  0.45640000  0.45 -0.1916120767
C  C633  1  0.94400000  0.76220000  0.47753000  0.45 0.1102177402
C  C634  1  0.93190000  0.72320000  0.45830000  0.45 -0.1916120767
C  C635  1  0.93310000  0.72150000  0.41790000  0.45 0.0689731564
C  C636  1  0.04160000  0.20220000  0.41600000  0.45 0.0994099635
C  C637  1  0.04280000  0.20040000  0.45640000  0.45 -0.1916120767
C  C638  1  0.05600000  0.23780000  0.47753000  0.45 0.1102177402
C  C639  1  0.06810000  0.27680000  0.45830000  0.45 -0.1916120767
C  C640  1  0.06690000  0.27850000  0.41790000  0.45 0.0689731564
C  C641  1  0.70220000  0.54160000  0.08400000  0.45 0.0994099635
C  C642  1  0.70040000  0.54280000  0.04360000  0.45 -0.1916120767
C  C643  1  0.73780000  0.55600000  0.02247000  0.45 0.1102177402
C  C644  1  0.77680000  0.56810000  0.04170000  0.45 -0.1916120767
C  C645  1  0.77850000  0.56690000  0.08210000  0.45 0.0689731564
C  C646  1  0.29780000  0.45840000  0.08400000  0.45 0.0994099635
C  C647  1  0.29960000  0.45720000  0.04360000  0.45 -0.1916120767
C  C648  1  0.26220000  0.44400000  0.02247000  0.45 0.1102177402
C  C649  1  0.22320000  0.43190000  0.04170000  0.45 -0.1916120767
C  C650  1  0.22150000  0.43310000  0.08210000  0.45 0.0689731564
C  C651  1  0.54160000  0.29780000  0.08400000  0.45 0.0994099635
C  C652  1  0.54280000  0.29960000  0.04360000  0.45 -0.1916120767
C  C653  1  0.55600000  0.26220000  0.02247000  0.45 0.1102177402
C  C654  1  0.56810000  0.22320000  0.04170000  0.45 -0.1916120767
C  C655  1  0.56690000  0.22150000  0.08210000  0.45 0.0689731564
C  C656  1  0.45840000  0.70220000  0.08400000  0.45 0.0994099635
C  C657  1  0.45720000  0.70040000  0.04360000  0.45 -0.1916120767
C  C658  1  0.44400000  0.73780000  0.02247000  0.45 0.1102177402
C  C659  1  0.43190000  0.77680000  0.04170000  0.45 -0.1916120767
C  C660  1  0.43310000  0.77850000  0.08210000  0.45 0.0689731564
C  C661  1  0.96430000  0.98880000  0.91880000  0.5 -0.0089231229
C  C662  1  0.96160000  0.98960000  0.95780000  0.5 -0.1083223678
C  C663  1  0.03570000  0.01120000  0.91880000  0.5 -0.0089231229
C  C664  1  0.03840000  0.01040000  0.95780000  0.5 -0.1083223678
C  C665  1  0.01120000  0.96430000  0.91880000  0.5 -0.0089231229
C  C666  1  0.01040000  0.96160000  0.95780000  0.5 -0.1083223678
C  C667  1  0.98880000  0.03570000  0.91880000  0.5 -0.0089231229
C  C668  1  0.98960000  0.03840000  0.95780000  0.5 -0.1083223678
C  C669  1  0.53570000  0.48880000  0.58120000  0.5 -0.0089231229
C  C670  1  0.53840000  0.48960000  0.54220000  0.5 -0.1083223678
C  C671  1  0.46430000  0.51120000  0.58120000  0.5 -0.0089231229
C  C672  1  0.46160000  0.51040000  0.54220000  0.5 -0.1083223678
C  C673  1  0.48880000  0.46430000  0.58120000  0.5 -0.0089231229
C  C674  1  0.48960000  0.46160000  0.54220000  0.5 -0.1083223678
C  C675  1  0.51120000  0.53570000  0.58120000  0.5 -0.0089231229
C  C676  1  0.51040000  0.53840000  0.54220000  0.5 -0.1083223678
C  C677  1  0.03570000  0.01120000  0.08120000  0.5 -0.0089231229
C  C678  1  0.03840000  0.01040000  0.04220000  0.5 -0.1083223678
C  C679  1  0.96430000  0.98880000  0.08120000  0.5 -0.0089231229
C  C680  1  0.96160000  0.98960000  0.04220000  0.5 -0.1083223678
C  C681  1  0.98880000  0.03570000  0.08120000  0.5 -0.0089231229
C  C682  1  0.98960000  0.03840000  0.04220000  0.5 -0.1083223678
C  C683  1  0.01120000  0.96430000  0.08120000  0.5 -0.0089231229
C  C684  1  0.01040000  0.96160000  0.04220000  0.5 -0.1083223678
C  C685  1  0.46430000  0.51120000  0.41880000  0.5 -0.0089231229
C  C686  1  0.46160000  0.51040000  0.45780000  0.5 -0.1083223678
C  C687  1  0.53570000  0.48880000  0.41880000  0.5 -0.0089231229
C  C688  1  0.53840000  0.48960000  0.45780000  0.5 -0.1083223678
C  C689  1  0.51120000  0.53570000  0.41880000  0.5 -0.0089231229
C  C690  1  0.51040000  0.53840000  0.45780000  0.5 -0.1083223678
C  C691  1  0.48880000  0.46430000  0.41880000  0.5 -0.0089231229
C  C692  1  0.48960000  0.46160000  0.45780000  0.5 -0.1083223678
N  N1  1  0.03953000  0.94428000  0.82460000  1.0 -0.3751587637
N  N2  1  0.30000000  0.17480000  0.55890000  1.0 -0.3592412712
N  N3  1  0.96047000  0.05572000  0.82460000  1.0 -0.3746303259
N  N4  1  0.70000000  0.82520000  0.55890000  1.0 -0.3592412712
N  N5  1  0.05572000  0.03953000  0.82460000  1.0 -0.3746303259
N  N6  1  0.82520000  0.30000000  0.55890000  1.0 -0.3592412712
N  N7  1  0.94428000  0.96047000  0.82460000  1.0 -0.3746303259
N  N8  1  0.17480000  0.70000000  0.55890000  1.0 -0.3530023642
N  N9  1  0.46047000  0.44428000  0.67540000  1.0 -0.3746303259
N  N10  1  0.20000000  0.67480000  0.94110000  1.0 -0.3530023642
N  N11  1  0.53953000  0.55572000  0.67540000  1.0 -0.3746303259
N  N12  1  0.80000000  0.32520000  0.94110000  1.0 -0.3530023642
N  N13  1  0.44428000  0.53953000  0.67540000  1.0 -0.3746303259
N  N14  1  0.67480000  0.80000000  0.94110000  1.0 -0.3530023642
N  N15  1  0.55572000  0.46047000  0.67540000  1.0 -0.3746303259
N  N16  1  0.32520000  0.20000000  0.94110000  1.0 -0.3530023642
N  N17  1  0.96047000  0.05572000  0.17540000  1.0 -0.3746303259
N  N18  1  0.70000000  0.82520000  0.44110000  1.0 -0.3592412712
N  N19  1  0.03953000  0.94428000  0.17540000  1.0 -0.3746303259
N  N20  1  0.30000000  0.17480000  0.44110000  1.0 -0.3592412712
N  N21  1  0.94428000  0.96047000  0.17540000  1.0 -0.3746303259
N  N22  1  0.17480000  0.70000000  0.44110000  1.0 -0.3592412712
N  N23  1  0.05572000  0.03953000  0.17540000  1.0 -0.3746303259
N  N24  1  0.82520000  0.30000000  0.44110000  1.0 -0.3592412712
N  N25  1  0.53953000  0.55572000  0.32460000  1.0 -0.3746303259
N  N26  1  0.80000000  0.32520000  0.05890000  1.0 -0.3592412712
N  N27  1  0.46047000  0.44428000  0.32460000  1.0 -0.3751587637
N  N28  1  0.20000000  0.67480000  0.05890000  1.0 -0.3592412712
N  N29  1  0.55572000  0.46047000  0.32460000  1.0 -0.3746303259
N  N30  1  0.32520000  0.20000000  0.05890000  1.0 -0.3592412712
N  N31  1  0.44428000  0.53953000  0.32460000  1.0 -0.3746303259
N  N32  1  0.67480000  0.80000000  0.05890000  1.0 -0.3592412712
N  N33  1  0.00000000  0.00000000  0.89670000  1.0 -0.1349629678
N  N34  1  0.50000000  0.50000000  0.60330000  1.0 -0.1387573703
N  N35  1  0.00000000  0.00000000  0.10330000  1.0 -0.1387573703
N  N36  1  0.50000000  0.50000000  0.39670000  1.0 -0.1387573703
N  N37  1  0.26570000  0.23310000  0.50000000  1.0 -0.3592412712
N  N38  1  0.33160000  0.11390000  0.50000000  1.0 -0.3237013586
N  N39  1  0.73430000  0.76690000  0.50000000  1.0 -0.3592412712
N  N40  1  0.66840000  0.88610000  0.50000000  1.0 -0.3237013586
N  N41  1  0.76690000  0.26570000  0.50000000  1.0 -0.3592412712
N  N42  1  0.88610000  0.33160000  0.50000000  1.0 -0.3237013586
N  N43  1  0.23310000  0.73430000  0.50000000  1.0 -0.3592412712
N  N44  1  0.11390000  0.66840000  0.50000000  1.0 -0.3237013586
N  N45  1  0.23430000  0.73310000  0.00000000  1.0 -0.3592412712
N  N46  1  0.16840000  0.61390000  0.00000000  1.0 -0.3237013586
N  N47  1  0.76570000  0.26690000  0.00000000  1.0 -0.3592412712
N  N48  1  0.83160000  0.38610000  0.00000000  1.0 -0.3237013586
N  N49  1  0.73310000  0.76570000  0.00000000  1.0 -0.3592412712
N  N50  1  0.61390000  0.83160000  0.00000000  1.0 -0.3237013586
N  N51  1  0.26690000  0.23430000  0.00000000  1.0 -0.3592412712
N  N52  1  0.38610000  0.16840000  0.00000000  1.0 -0.3237013586
N  N53  1  0.24120000  0.94640000  0.60325000  0.45 -0.180854995
N  N54  1  0.75880000  0.05360000  0.60325000  0.45 -0.180854995
N  N55  1  0.05360000  0.24120000  0.60325000  0.45 -0.180854995
N  N56  1  0.94640000  0.75880000  0.60325000  0.45 -0.180854995
N  N57  1  0.25880000  0.44640000  0.89675000  0.45 -0.180854995
N  N58  1  0.74120000  0.55360000  0.89675000  0.45 -0.180854995
N  N59  1  0.44640000  0.74120000  0.89675000  0.45 -0.180854995
N  N60  1  0.55360000  0.25880000  0.89675000  0.45 -0.180854995
N  N61  1  0.75880000  0.05360000  0.39675000  0.45 -0.180854995
N  N62  1  0.24120000  0.94640000  0.39675000  0.45 -0.180854995
N  N63  1  0.94640000  0.75880000  0.39675000  0.45 -0.180854995
N  N64  1  0.05360000  0.24120000  0.39675000  0.45 -0.180854995
N  N65  1  0.74120000  0.55360000  0.10325000  0.45 -0.180854995
N  N66  1  0.25880000  0.44640000  0.10325000  0.45 -0.180854995
N  N67  1  0.55360000  0.25880000  0.10325000  0.45 -0.180854995
N  N68  1  0.44640000  0.74120000  0.10325000  0.45 -0.180854995
O  O1  1  0.29724000  0.92640000  0.76668000  1.0 -0.5202989422
O  O2  1  0.23910000  0.94440000  0.72819000  1.0 -0.4572946124
O  O3  1  0.32450000  0.85280000  0.70160000  1.0 -0.5202989422
O  O4  1  0.27110000  0.87650000  0.66120000  1.0 -0.4572946124
O  O5  1  0.35270000  0.95680000  0.69260000  1.0 -0.5098488584
O  O6  1  0.29050000  0.97430000  0.66010000  1.0 -0.4428808999
O  O7  1  0.18080000  0.92100000  0.66130000  1.0 -0.6982056029
O  O8  1  0.70276000  0.07360000  0.76668000  1.0 -0.5202989422
O  O9  1  0.76090000  0.05560000  0.72819000  1.0 -0.4572946124
O  O10  1  0.67550000  0.14720000  0.70160000  1.0 -0.5202989422
O  O11  1  0.72890000  0.12350000  0.66120000  1.0 -0.4572946124
O  O12  1  0.64730000  0.04320000  0.69260000  1.0 -0.5098488584
O  O13  1  0.70950000  0.02570000  0.66010000  1.0 -0.4428808999
O  O14  1  0.81920000  0.07900000  0.66130000  1.0 -0.6940333017
O  O15  1  0.07360000  0.29724000  0.76668000  1.0 -0.5202989422
O  O16  1  0.05560000  0.23910000  0.72819000  1.0 -0.4572946124
O  O17  1  0.14720000  0.32450000  0.70160000  1.0 -0.5202989422
O  O18  1  0.12350000  0.27110000  0.66120000  1.0 -0.4572946124
O  O19  1  0.04320000  0.35270000  0.69260000  1.0 -0.5098488584
O  O20  1  0.02570000  0.29050000  0.66010000  1.0 -0.4428808999
O  O21  1  0.07900000  0.18080000  0.66130000  1.0 -0.6982056029
O  O22  1  0.92640000  0.70276000  0.76668000  1.0 -0.5202989422
O  O23  1  0.94440000  0.76090000  0.72819000  1.0 -0.4572946124
O  O24  1  0.85280000  0.67550000  0.70160000  1.0 -0.5202989422
O  O25  1  0.87650000  0.72890000  0.66120000  1.0 -0.4572946124
O  O26  1  0.95680000  0.64730000  0.69260000  1.0 -0.5098488584
O  O27  1  0.97430000  0.70950000  0.66010000  1.0 -0.4428808999
O  O28  1  0.92100000  0.81920000  0.66130000  1.0 -0.6982056029
O  O29  1  0.20276000  0.42640000  0.73332000  1.0 -0.5202989422
O  O30  1  0.26090000  0.44440000  0.77181000  1.0 -0.4572946124
O  O31  1  0.17550000  0.35280000  0.79840000  1.0 -0.5202989422
O  O32  1  0.22890000  0.37650000  0.83880000  1.0 -0.4572946124
O  O33  1  0.14730000  0.45680000  0.80740000  1.0 -0.5098488584
O  O34  1  0.20950000  0.47430000  0.83990000  1.0 -0.4428808999
O  O35  1  0.31920000  0.42100000  0.83870000  1.0 -0.6982056029
O  O36  1  0.79724000  0.57360000  0.73332000  1.0 -0.5202989422
O  O37  1  0.73910000  0.55560000  0.77181000  1.0 -0.4572946124
O  O38  1  0.82450000  0.64720000  0.79840000  1.0 -0.5202989422
O  O39  1  0.77110000  0.62350000  0.83880000  1.0 -0.4572946124
O  O40  1  0.85270000  0.54320000  0.80740000  1.0 -0.5098488584
O  O41  1  0.79050000  0.52570000  0.83990000  1.0 -0.4428808999
O  O42  1  0.68080000  0.57900000  0.83870000  1.0 -0.6982056029
O  O43  1  0.42640000  0.79724000  0.73332000  1.0 -0.5202989422
O  O44  1  0.44440000  0.73910000  0.77181000  1.0 -0.4572946124
O  O45  1  0.35280000  0.82450000  0.79840000  1.0 -0.5202989422
O  O46  1  0.37650000  0.77110000  0.83880000  1.0 -0.4572946124
O  O47  1  0.45680000  0.85270000  0.80740000  1.0 -0.5098488584
O  O48  1  0.47430000  0.79050000  0.83990000  1.0 -0.4428808999
O  O49  1  0.42100000  0.68080000  0.83870000  1.0 -0.6982056029
O  O50  1  0.57360000  0.20276000  0.73332000  1.0 -0.5202989422
O  O51  1  0.55560000  0.26090000  0.77181000  1.0 -0.4572946124
O  O52  1  0.64720000  0.17550000  0.79840000  1.0 -0.5202989422
O  O53  1  0.62350000  0.22890000  0.83880000  1.0 -0.4572946124
O  O54  1  0.54320000  0.14730000  0.80740000  1.0 -0.5098488584
O  O55  1  0.52570000  0.20950000  0.83990000  1.0 -0.4428808999
O  O56  1  0.57900000  0.31920000  0.83870000  1.0 -0.6982056029
O  O57  1  0.70276000  0.07360000  0.23332000  1.0 -0.5202989422
O  O58  1  0.76090000  0.05560000  0.27181000  1.0 -0.4572946124
O  O59  1  0.67550000  0.14720000  0.29840000  1.0 -0.5202989422
O  O60  1  0.72890000  0.12350000  0.33880000  1.0 -0.4572946124
O  O61  1  0.64730000  0.04320000  0.30740000  1.0 -0.5098488584
O  O62  1  0.70950000  0.02570000  0.33990000  1.0 -0.4428808999
O  O63  1  0.81920000  0.07900000  0.33870000  1.0 -0.6982056029
O  O64  1  0.29724000  0.92640000  0.23332000  1.0 -0.5202989422
O  O65  1  0.23910000  0.94440000  0.27181000  1.0 -0.4572946124
O  O66  1  0.32450000  0.85280000  0.29840000  1.0 -0.5202989422
O  O67  1  0.27110000  0.87650000  0.33880000  1.0 -0.4572946124
O  O68  1  0.35270000  0.95680000  0.30740000  1.0 -0.5098488584
O  O69  1  0.29050000  0.97430000  0.33990000  1.0 -0.4428808999
O  O70  1  0.18080000  0.92100000  0.33870000  1.0 -0.6982056029
O  O71  1  0.92640000  0.70276000  0.23332000  1.0 -0.5202989422
O  O72  1  0.94440000  0.76090000  0.27181000  1.0 -0.4572946124
O  O73  1  0.85280000  0.67550000  0.29840000  1.0 -0.5202989422
O  O74  1  0.87650000  0.72890000  0.33880000  1.0 -0.4572946124
O  O75  1  0.95680000  0.64730000  0.30740000  1.0 -0.5098488584
O  O76  1  0.97430000  0.70950000  0.33990000  1.0 -0.4428808999
O  O77  1  0.92100000  0.81920000  0.33870000  1.0 -0.6982056029
O  O78  1  0.07360000  0.29724000  0.23332000  1.0 -0.5202989422
O  O79  1  0.05560000  0.23910000  0.27181000  1.0 -0.4572946124
O  O80  1  0.14720000  0.32450000  0.29840000  1.0 -0.5202989422
O  O81  1  0.12350000  0.27110000  0.33880000  1.0 -0.4572946124
O  O82  1  0.04320000  0.35270000  0.30740000  1.0 -0.5098488584
O  O83  1  0.02570000  0.29050000  0.33990000  1.0 -0.4428808999
O  O84  1  0.07900000  0.18080000  0.33870000  1.0 -0.6982056029
O  O85  1  0.79724000  0.57360000  0.26668000  1.0 -0.5202989422
O  O86  1  0.73910000  0.55560000  0.22819000  1.0 -0.4572946124
O  O87  1  0.82450000  0.64720000  0.20160000  1.0 -0.5202989422
O  O88  1  0.77110000  0.62350000  0.16120000  1.0 -0.4572946124
O  O89  1  0.85270000  0.54320000  0.19260000  1.0 -0.5098488584
O  O90  1  0.79050000  0.52570000  0.16010000  1.0 -0.4428808999
O  O91  1  0.68080000  0.57900000  0.16130000  1.0 -0.6982056029
O  O92  1  0.20276000  0.42640000  0.26668000  1.0 -0.5202989422
O  O93  1  0.26090000  0.44440000  0.22819000  1.0 -0.4572946124
O  O94  1  0.17550000  0.35280000  0.20160000  1.0 -0.5202989422
O  O95  1  0.22890000  0.37650000  0.16120000  1.0 -0.4572946124
O  O96  1  0.14730000  0.45680000  0.19260000  1.0 -0.5098488584
O  O97  1  0.20950000  0.47430000  0.16010000  1.0 -0.4428808999
O  O98  1  0.31920000  0.42100000  0.16130000  1.0 -0.6982056029
O  O99  1  0.57360000  0.20276000  0.26668000  1.0 -0.5202989422
O  O100  1  0.55560000  0.26090000  0.22819000  1.0 -0.4572946124
O  O101  1  0.64720000  0.17550000  0.20160000  1.0 -0.5202989422
O  O102  1  0.62350000  0.22890000  0.16120000  1.0 -0.4572946124
O  O103  1  0.54320000  0.14730000  0.19260000  1.0 -0.5098488584
O  O104  1  0.52570000  0.20950000  0.16010000  1.0 -0.4428808999
O  O105  1  0.57900000  0.31920000  0.16130000  1.0 -0.6982056029
O  O106  1  0.42640000  0.79724000  0.26668000  1.0 -0.5202989422
O  O107  1  0.44440000  0.73910000  0.22819000  1.0 -0.4572946124
O  O108  1  0.35280000  0.82450000  0.20160000  1.0 -0.5202989422
O  O109  1  0.37650000  0.77110000  0.16120000  1.0 -0.4572946124
O  O110  1  0.45680000  0.85270000  0.19260000  1.0 -0.5098488584
O  O111  1  0.47430000  0.79050000  0.16010000  1.0 -0.4428808999
O  O112  1  0.42100000  0.68080000  0.16130000  1.0 -0.6982056029
O  O113  1  0.39553000  0.89553000  0.75000000  1.0 -0.8469721147
O  O114  1  0.60447000  0.10447000  0.75000000  1.0 -0.8469721147
O  O115  1  0.10447000  0.39553000  0.75000000  1.0 -0.8469721147
O  O116  1  0.89553000  0.60447000  0.75000000  1.0 -0.8469721147
O  O117  1  0.60447000  0.10447000  0.25000000  1.0 -0.8469721147
O  O118  1  0.39553000  0.89553000  0.25000000  1.0 -0.8469721147
O  O119  1  0.89553000  0.60447000  0.25000000  1.0 -0.8469721147
O  O120  1  0.10447000  0.39553000  0.25000000  1.0 -0.8469721147
