# generated by PACMAN-DDEC6 charge (https://github.com/sxm13/PACMAN/)
data_structure
_chemical_formula_sum              "Al16 P8 H192 C232 O80"
_cell_length_a       18.9892
_cell_length_b       18.9892
_cell_length_c       36.9796
_cell_angle_alpha    90
_cell_angle_beta     90
_cell_angle_gamma    90

_symmetry_space_group_name_H-M    "P 1"
_symmetry_Int_Tables_number       1

loop_
  _symmetry_equiv_pos_as_xyz
  'x, y, z'

loop_
  _atom_site_type_symbol
  _atom_site_label
  _atom_site_symmetry_multiplicity
  _atom_site_fract_x
  _atom_site_fract_y
  _atom_site_fract_z
  _atom_site_occupancy
  _atom_site_charge
Al  Al1       1.0  0.36895  0.59371  0.91772  1.0000 1.6718394569
Al  Al2       1.0  0.63105  0.40629  0.91772  1.0000 1.6718394569
Al  Al3       1.0  0.90629  0.86895  0.41772  1.0000 1.6718394569
Al  Al4       1.0  0.09371  0.13105  0.41772  1.0000 1.6718394569
Al  Al5       1.0  0.13105  0.09371  0.58228  1.0000 1.6718394569
Al  Al6       1.0  0.86895  0.90629  0.58228  1.0000 1.6718394569
Al  Al7       1.0  0.59371  0.36895  0.08228  1.0000 1.6718394569
Al  Al8       1.0  0.40629  0.63105  0.08228  1.0000 1.6718394569
Al  Al9       1.0  0.33610  0.66390  0.00000  1.0000 1.7065360359
Al  Al10      1.0  0.66390  0.33610  0.00000  1.0000 1.7065360359
Al  Al11      1.0  0.83610  0.83610  0.50000  1.0000 1.7065360359
Al  Al12      1.0  0.16390  0.16390  0.50000  1.0000 1.7065360359
Al  Al13      1.0  0.50000  0.50000  0.88241  1.0000 1.6485753766
Al  Al14      1.0  0.00000  0.00000  0.38241  1.0000 1.6485753766
Al  Al15      1.0  0.00000  0.00000  0.61759  1.0000 1.6485753766
Al  Al16      1.0  0.50000  0.50000  0.11759  1.0000 1.6485753766
P   P1        1.0  0.24536  0.54300  0.96398  1.0000 1.0082593373
P   P2        1.0  0.75464  0.45700  0.96398  1.0000 1.0082593373
P   P3        1.0  0.95700  0.74536  0.46398  1.0000 1.0082593373
P   P4        1.0  0.04300  0.25464  0.46398  1.0000 1.0082593373
P   P5        1.0  0.25464  0.04300  0.53602  1.0000 1.0082593373
P   P6        1.0  0.74536  0.95700  0.53602  1.0000 1.0082593373
P   P7        1.0  0.54300  0.24536  0.03602  1.0000 1.0082593373
P   P8        1.0  0.45700  0.75464  0.03602  1.0000 1.0082593373
H   H1        1.0  0.43338  0.49147  0.93821  1.0000 0.4279397454
H   H2        1.0  0.44073  0.61722  0.97047  1.0000 0.4279397454
H   H3        1.0  0.30442  0.74387  0.86142  1.0000 0.1290997951
H   H4        1.0  0.30917  0.84716  0.82755  1.0000 0.1087098751
H   H5        1.0  0.08809  0.99236  0.71999  1.0000 0.1290997951
H   H6        1.0  0.29646  0.96217  0.91931  1.0000 0.1087098751
H   H7        1.0  0.29119  0.85890  0.95309  1.0000 0.1393802239
H   H8        1.0  0.53522  0.21096  0.88997  1.0000 0.1290997951
H   H9        1.0  0.37008  0.03767  0.88116  1.0000 0.1087098751
H   H10       1.0  0.25082  0.09856  0.67445  1.0000 0.1290997951
H   H11       1.0  0.30910  0.09905  0.72994  1.0000 0.1087098751
H   H12       1.0  0.31543  0.23587  0.83422  1.0000 0.1087098751
H   H13       1.0  0.24451  0.94436  0.80707  1.0000 0.1087098751
H   H14       1.0  0.37702  0.33544  0.85363  1.0000 0.1290997951
H   H15       1.0  0.31318  0.14324  0.79103  1.0000 0.1087098751
H   H16       1.0  0.14748  0.99211  0.77540  1.0000 0.1087098751
H   H17       1.0  0.47279  0.11158  0.87119  1.0000 0.1087098751
H   H18       1.0  0.56662  0.50853  0.93821  1.0000 0.4279397454
H   H19       1.0  0.55927  0.38278  0.97047  1.0000 0.4279397454
H   H20       1.0  0.69558  0.25613  0.86142  1.0000 0.1290997951
H   H21       1.0  0.69083  0.15284  0.82755  1.0000 0.1087098751
H   H22       1.0  0.91191  0.00764  0.71999  1.0000 0.1290997951
H   H23       1.0  0.70354  0.03783  0.91931  1.0000 0.1087098751
H   H24       1.0  0.70881  0.14110  0.95309  1.0000 0.1393802239
H   H25       1.0  0.46478  0.78904  0.88997  1.0000 0.1290997951
H   H26       1.0  0.62992  0.96233  0.88116  1.0000 0.1087098751
H   H27       1.0  0.74918  0.90144  0.67445  1.0000 0.1290997951
H   H28       1.0  0.69090  0.90095  0.72994  1.0000 0.1087098751
H   H29       1.0  0.68457  0.76413  0.83422  1.0000 0.1087098751
H   H30       1.0  0.75549  0.05564  0.80707  1.0000 0.1087098751
H   H31       1.0  0.62298  0.66456  0.85363  1.0000 0.1290997951
H   H32       1.0  0.68682  0.85676  0.79103  1.0000 0.1087098751
H   H33       1.0  0.85252  0.00789  0.77540  1.0000 0.1087098751
H   H34       1.0  0.52721  0.88842  0.87119  1.0000 0.1087098751
H   H35       1.0  0.00853  0.93338  0.43821  1.0000 0.4279397454
H   H36       1.0  0.88278  0.94073  0.47047  1.0000 0.4279397454
H   H37       1.0  0.75613  0.80442  0.36142  1.0000 0.1290997951
H   H38       1.0  0.65284  0.80917  0.32755  1.0000 0.1087098751
H   H39       1.0  0.50764  0.58809  0.21999  1.0000 0.1290997951
H   H40       1.0  0.53783  0.79646  0.41931  1.0000 0.1087098751
H   H41       1.0  0.64110  0.79119  0.45309  1.0000 0.1393802239
H   H42       1.0  0.28904  0.03522  0.38997  1.0000 0.1290997951
H   H43       1.0  0.46233  0.87008  0.38116  1.0000 0.1087098751
H   H44       1.0  0.40144  0.75082  0.17445  1.0000 0.1290997951
H   H45       1.0  0.40095  0.80910  0.22994  1.0000 0.1087098751
H   H46       1.0  0.26413  0.81543  0.33422  1.0000 0.1087098751
H   H47       1.0  0.55564  0.74451  0.30707  1.0000 0.1087098751
H   H48       1.0  0.16456  0.87702  0.35363  1.0000 0.1290997951
H   H49       1.0  0.35676  0.81318  0.29103  1.0000 0.1087098751
H   H50       1.0  0.50789  0.64748  0.27540  1.0000 0.1087098751
H   H51       1.0  0.38842  0.97279  0.37119  1.0000 0.1087098751
H   H52       1.0  0.99147  0.06662  0.43821  1.0000 0.4279397454
H   H53       1.0  0.11722  0.05927  0.47047  1.0000 0.4279397454
H   H54       1.0  0.24387  0.19558  0.36142  1.0000 0.1290997951
H   H55       1.0  0.34716  0.19083  0.32755  1.0000 0.1087098751
H   H56       1.0  0.49236  0.41191  0.21999  1.0000 0.1290997951
H   H57       1.0  0.46217  0.20354  0.41931  1.0000 0.1087098751
H   H58       1.0  0.35890  0.20881  0.45309  1.0000 0.1393802239
H   H59       1.0  0.71096  0.96478  0.38997  1.0000 0.1290997951
H   H60       1.0  0.53767  0.12992  0.38116  1.0000 0.1087098751
H   H61       1.0  0.59856  0.24918  0.17445  1.0000 0.1290997951
H   H62       1.0  0.59905  0.19090  0.22994  1.0000 0.1087098751
H   H63       1.0  0.73587  0.18457  0.33422  1.0000 0.1087098751
H   H64       1.0  0.44436  0.25549  0.30707  1.0000 0.1087098751
H   H65       1.0  0.83544  0.12298  0.35363  1.0000 0.1290997951
H   H66       1.0  0.64324  0.18682  0.29103  1.0000 0.1087098751
H   H67       1.0  0.49211  0.35252  0.27540  1.0000 0.1087098751
H   H68       1.0  0.61158  0.02721  0.37119  1.0000 0.1087098751
H   H69       1.0  0.06662  0.99147  0.56179  1.0000 0.4246794692
H   H70       1.0  0.05927  0.11722  0.52953  1.0000 0.4279397454
H   H71       1.0  0.19558  0.24387  0.63858  1.0000 0.1290997951
H   H72       1.0  0.19083  0.34716  0.67245  1.0000 0.1087098751
H   H73       1.0  0.41191  0.49236  0.78001  1.0000 0.1290997951
H   H74       1.0  0.20354  0.46217  0.58069  1.0000 0.1087098751
H   H75       1.0  0.20881  0.35890  0.54691  1.0000 0.1393802239
H   H76       1.0  0.96478  0.71096  0.61003  1.0000 0.1290997951
H   H77       1.0  0.12992  0.53767  0.61884  1.0000 0.1087098751
H   H78       1.0  0.24918  0.59856  0.82555  1.0000 0.1290997951
H   H79       1.0  0.19090  0.59905  0.77006  1.0000 0.1087098751
H   H80       1.0  0.18457  0.73587  0.66578  1.0000 0.1087098751
H   H81       1.0  0.25549  0.44436  0.69293  1.0000 0.1087098751
H   H82       1.0  0.12298  0.83544  0.64637  1.0000 0.1290997951
H   H83       1.0  0.18682  0.64324  0.70897  1.0000 0.1087098751
H   H84       1.0  0.35252  0.49211  0.72460  1.0000 0.1087098751
H   H85       1.0  0.02721  0.61158  0.62881  1.0000 0.1087098751
H   H86       1.0  0.93338  0.00853  0.56179  1.0000 0.4246794692
H   H87       1.0  0.94073  0.88278  0.52953  1.0000 0.4279397454
H   H88       1.0  0.80442  0.75613  0.63858  1.0000 0.1290997951
H   H89       1.0  0.80917  0.65284  0.67245  1.0000 0.1087098751
H   H90       1.0  0.58809  0.50764  0.78001  1.0000 0.1290997951
H   H91       1.0  0.79646  0.53783  0.58069  1.0000 0.1087098751
H   H92       1.0  0.79119  0.64110  0.54691  1.0000 0.1393802239
H   H93       1.0  0.03522  0.28904  0.61003  1.0000 0.1290997951
H   H94       1.0  0.87008  0.46233  0.61884  1.0000 0.1087098751
H   H95       1.0  0.75082  0.40144  0.82555  1.0000 0.1290997951
H   H96       1.0  0.80910  0.40095  0.77006  1.0000 0.1087098751
H   H97       1.0  0.81543  0.26413  0.66578  1.0000 0.1087098751
H   H98       1.0  0.74451  0.55564  0.69293  1.0000 0.1087098751
H   H99       1.0  0.87702  0.16456  0.64637  1.0000 0.1290997951
H   H100      1.0  0.81318  0.35676  0.70897  1.0000 0.1087098751
H   H101      1.0  0.64748  0.50789  0.72460  1.0000 0.1087098751
H   H102      1.0  0.97279  0.38842  0.62881  1.0000 0.1087098751
H   H103      1.0  0.49147  0.43338  0.06179  1.0000 0.4279397454
H   H104      1.0  0.61722  0.44073  0.02953  1.0000 0.4279397454
H   H105      1.0  0.74387  0.30442  0.13858  1.0000 0.1290997951
H   H106      1.0  0.84716  0.30917  0.17245  1.0000 0.1087098751
H   H107      1.0  0.99236  0.08809  0.28001  1.0000 0.1290997951
H   H108      1.0  0.96217  0.29646  0.08069  1.0000 0.1087098751
H   H109      1.0  0.85890  0.29119  0.04691  1.0000 0.1393802239
H   H110      1.0  0.21096  0.53522  0.11003  1.0000 0.1290997951
H   H111      1.0  0.03767  0.37008  0.11884  1.0000 0.1087098751
H   H112      1.0  0.09856  0.25082  0.32555  1.0000 0.1290997951
H   H113      1.0  0.09905  0.30910  0.27006  1.0000 0.1087098751
H   H114      1.0  0.23587  0.31543  0.16578  1.0000 0.1087098751
H   H115      1.0  0.94436  0.24451  0.19293  1.0000 0.1087098751
H   H116      1.0  0.33544  0.37702  0.14637  1.0000 0.1290997951
H   H117      1.0  0.14324  0.31318  0.20897  1.0000 0.1087098751
H   H118      1.0  0.99211  0.14748  0.22460  1.0000 0.1087098751
H   H119      1.0  0.11158  0.47279  0.12881  1.0000 0.1087098751
H   H120      1.0  0.50853  0.56662  0.06179  1.0000 0.4279397454
H   H121      1.0  0.38278  0.55927  0.02953  1.0000 0.4279397454
H   H122      1.0  0.25613  0.69558  0.13858  1.0000 0.1290997951
H   H123      1.0  0.15284  0.69083  0.17245  1.0000 0.1087098751
H   H124      1.0  0.00764  0.91191  0.28001  1.0000 0.1290997951
H   H125      1.0  0.03783  0.70354  0.08069  1.0000 0.1087098751
H   H126      1.0  0.14110  0.70881  0.04691  1.0000 0.1393802239
H   H127      1.0  0.78904  0.46478  0.11003  1.0000 0.1290997951
H   H128      1.0  0.96233  0.62992  0.11884  1.0000 0.1087098751
H   H129      1.0  0.90144  0.74918  0.32555  1.0000 0.1290997951
H   H130      1.0  0.90095  0.69090  0.27006  1.0000 0.1087098751
H   H131      1.0  0.76413  0.68457  0.16578  1.0000 0.1087098751
H   H132      1.0  0.05564  0.75549  0.19293  1.0000 0.1087098751
H   H133      1.0  0.66456  0.62298  0.14637  1.0000 0.1290997951
H   H134      1.0  0.85676  0.68682  0.20897  1.0000 0.1087098751
H   H135      1.0  0.00789  0.85252  0.22460  1.0000 0.1087098751
H   H136      1.0  0.88842  0.52721  0.12881  1.0000 0.1087098751
H   H137      1.0  0.20209  0.51795  0.96488  0.2700 0.0165440104
H   H138      1.0  0.79791  0.48205  0.96488  0.2700 0.0165440104
H   H139      1.0  0.98205  0.70209  0.46488  0.2700 0.0165440104
H   H140      1.0  0.01795  0.29791  0.46488  0.2700 0.0165440104
H   H141      1.0  0.29791  0.01795  0.53512  0.2700 0.0165440104
H   H142      1.0  0.70209  0.98205  0.53512  0.2700 0.0165440104
H   H143      1.0  0.51795  0.20209  0.03512  0.2700 0.0165440104
H   H144      1.0  0.48205  0.79791  0.03512  0.2700 0.0165440104
H   H145      1.0  0.17038  0.61681  0.93130  0.7300 0.1674009692
H   H146      1.0  0.12635  0.57320  0.96063  0.7300 0.1511892824
H   H147      1.0  0.15072  0.53617  0.92382  0.7300 0.1511892824
H   H148      1.0  0.21255  0.42844  0.96724  0.7300 0.1590846391
H   H149      1.0  0.18684  0.47058  0.00231  0.7300 0.1393802239
H   H150      1.0  0.26746  0.44709  0.99864  0.7300 0.1674009692
H   H151      1.0  0.82962  0.38319  0.93130  0.7300 0.1674009692
H   H152      1.0  0.87365  0.42680  0.96063  0.7300 0.1511892824
H   H153      1.0  0.84928  0.46383  0.92382  0.7300 0.1511892824
H   H154      1.0  0.78745  0.57156  0.96724  0.7300 0.1590846391
H   H155      1.0  0.81316  0.52942  0.00231  0.7300 0.1393802239
H   H156      1.0  0.73254  0.55291  0.99864  0.7300 0.1674009692
H   H157      1.0  0.88319  0.67038  0.43130  0.7300 0.1674009692
H   H158      1.0  0.92680  0.62635  0.46063  0.7300 0.1511892824
H   H159      1.0  0.96383  0.65072  0.42382  0.7300 0.1511892824
H   H160      1.0  0.07156  0.71255  0.46724  0.7300 0.1590846391
H   H161      1.0  0.02942  0.68684  0.50231  0.7300 0.1393802239
H   H162      1.0  0.05291  0.76746  0.49864  0.7300 0.1674009692
H   H163      1.0  0.11681  0.32962  0.43130  0.7300 0.1674009692
H   H164      1.0  0.07320  0.37365  0.46063  0.7300 0.1511892824
H   H165      1.0  0.03617  0.34928  0.42382  0.7300 0.1511892824
H   H166      1.0  0.92844  0.28745  0.46724  0.7300 0.1590846391
H   H167      1.0  0.97058  0.31316  0.50231  0.7300 0.1393802239
H   H168      1.0  0.94709  0.23254  0.49864  0.7300 0.1674009692
H   H169      1.0  0.32962  0.11681  0.56870  0.7300 0.1674009692
H   H170      1.0  0.37365  0.07320  0.53937  0.7300 0.1511892824
H   H171      1.0  0.34928  0.03617  0.57618  0.7300 0.1511892824
H   H172      1.0  0.28745  0.92844  0.53276  0.7300 0.1590846391
H   H173      1.0  0.31316  0.97058  0.49769  0.7300 0.1393802239
H   H174      1.0  0.23254  0.94709  0.50136  0.7300 0.1674009692
H   H175      1.0  0.67038  0.88319  0.56870  0.7300 0.1674009692
H   H176      1.0  0.62635  0.92680  0.53937  0.7300 0.1511892824
H   H177      1.0  0.65072  0.96383  0.57618  0.7300 0.1511892824
H   H178      1.0  0.71255  0.07156  0.53276  0.7300 0.1590846391
H   H179      1.0  0.68684  0.02942  0.49769  0.7300 0.1393802239
H   H180      1.0  0.76746  0.05291  0.50136  0.7300 0.1674009692
H   H181      1.0  0.61681  0.17038  0.06870  0.7300 0.1674009692
H   H182      1.0  0.57320  0.12635  0.03937  0.7300 0.1511892824
H   H183      1.0  0.53617  0.15072  0.07618  0.7300 0.1511892824
H   H184      1.0  0.42844  0.21255  0.03276  0.7300 0.1590846391
H   H185      1.0  0.47058  0.18684  0.99769  0.7300 0.1393802239
H   H186      1.0  0.44709  0.26746  0.00136  0.7300 0.1590846391
H   H187      1.0  0.38319  0.82962  0.06870  0.7300 0.1674009692
H   H188      1.0  0.42680  0.87365  0.03937  0.7300 0.1511892824
H   H189      1.0  0.46383  0.84928  0.07618  0.7300 0.1511892824
H   H190      1.0  0.57156  0.78745  0.03276  0.7300 0.1590846391
H   H191      1.0  0.52942  0.81316  0.99769  0.7300 0.1393802239
H   H192      1.0  0.55291  0.73254  0.00136  0.7300 0.1674009692
C   C1        1.0  0.29969  0.72525  0.93196  1.0000 0.6202185911
C   C2        1.0  0.12624  0.04567  0.65656  1.0000 0.6202185911
C   C3        1.0  0.29732  0.79203  0.91067  1.0000 -0.0390059371
C   C4        1.0  0.50061  0.34749  0.88515  1.0000 0.6202185911
C   C5        1.0  0.30278  0.78831  0.87317  1.0000 -0.0906958742
C   C6        1.0  0.30581  0.84981  0.85315  1.0000 -0.1568889459
C   C7        1.0  0.46191  0.28315  0.87379  1.0000 -0.0505746525
C   C8        1.0  0.13306  0.01396  0.72193  1.0000 -0.1053387263
C   C9        1.0  0.29820  0.91786  0.90742  1.0000 -0.1568889459
C   C10       1.0  0.23460  0.04573  0.75836  1.0000 0.0710213823
C   C11       1.0  0.29500  0.85647  0.92751  1.0000 -0.0906958742
C   C12       1.0  0.30400  0.91519  0.86978  1.0000 0.0710213823
C   C13       1.0  0.27300  0.04409  0.79332  1.0000 0.0787324445
C   C14       1.0  0.49045  0.21619  0.87883  1.0000 -0.0906958742
C   C15       1.0  0.16329  0.04535  0.69202  1.0000 -0.0505746525
C   C16       1.0  0.34500  0.03946  0.85894  1.0000 -0.2072933969
C   C17       1.0  0.22965  0.07714  0.69496  1.0000 -0.0990058043
C   C18       1.0  0.26430  0.07714  0.72802  1.0000 -0.1568889459
C   C19       1.0  0.35990  0.23045  0.84568  1.0000 -0.154060159
C   C20       1.0  0.27080  0.98409  0.81495  1.0000 -0.2033566657
C   C21       1.0  0.39670  0.28997  0.85718  1.0000 -0.0906958742
C   C22       1.0  0.30620  0.98109  0.84788  1.0000 0.0787324445
C   C23       1.0  0.31150  0.10181  0.80541  1.0000 -0.2033566657
C   C24       1.0  0.34780  0.10008  0.83816  1.0000 0.0787324445
C   C25       1.0  0.38740  0.16341  0.85075  1.0000 0.0710213823
C   C26       1.0  0.16850  0.01395  0.75496  1.0000 -0.1568889459
C   C27       1.0  0.45320  0.15705  0.86750  1.0000 -0.154060159
C   C28       1.0  0.70031  0.27475  0.93196  1.0000 0.6202185911
C   C29       1.0  0.87376  0.95433  0.65656  1.0000 0.6202185911
C   C30       1.0  0.70268  0.20797  0.91067  1.0000 -0.0390059371
C   C31       1.0  0.49939  0.65251  0.88515  1.0000 0.6202185911
C   C32       1.0  0.69722  0.21169  0.87317  1.0000 -0.0906958742
C   C33       1.0  0.69419  0.15019  0.85315  1.0000 -0.1568889459
C   C34       1.0  0.53809  0.71685  0.87379  1.0000 -0.0505746525
C   C35       1.0  0.86694  0.98604  0.72193  1.0000 -0.1053387263
C   C36       1.0  0.70180  0.08214  0.90742  1.0000 -0.1568889459
C   C37       1.0  0.76540  0.95427  0.75836  1.0000 0.0710213823
C   C38       1.0  0.70500  0.14353  0.92751  1.0000 -0.0906958742
C   C39       1.0  0.69600  0.08481  0.86978  1.0000 0.0710213823
C   C40       1.0  0.72700  0.95591  0.79332  1.0000 0.0787324445
C   C41       1.0  0.50955  0.78381  0.87883  1.0000 -0.0906958742
C   C42       1.0  0.83671  0.95465  0.69202  1.0000 -0.0505746525
C   C43       1.0  0.65500  0.96054  0.85894  1.0000 -0.2072933969
C   C44       1.0  0.77035  0.92286  0.69496  1.0000 -0.0990058043
C   C45       1.0  0.73570  0.92286  0.72802  1.0000 -0.1568889459
C   C46       1.0  0.64010  0.76955  0.84568  1.0000 -0.154060159
C   C47       1.0  0.72920  0.01591  0.81495  1.0000 -0.2033566657
C   C48       1.0  0.60330  0.71003  0.85718  1.0000 -0.0906958742
C   C49       1.0  0.69380  0.01891  0.84788  1.0000 0.0787324445
C   C50       1.0  0.68850  0.89819  0.80541  1.0000 -0.2033566657
C   C51       1.0  0.65220  0.89992  0.83816  1.0000 0.0787324445
C   C52       1.0  0.61260  0.83659  0.85075  1.0000 0.0710213823
C   C53       1.0  0.83150  0.98605  0.75496  1.0000 -0.1568889459
C   C54       1.0  0.54680  0.84295  0.86750  1.0000 -0.154060159
C   C55       1.0  0.77475  0.79969  0.43196  1.0000 0.6202185911
C   C56       1.0  0.45433  0.62624  0.15656  1.0000 0.6202185911
C   C57       1.0  0.70797  0.79732  0.41067  1.0000 -0.0390059371
C   C58       1.0  0.15251  0.00061  0.38515  1.0000 0.6202185911
C   C59       1.0  0.71169  0.80278  0.37317  1.0000 -0.0906958742
C   C60       1.0  0.65019  0.80581  0.35315  1.0000 -0.1568889459
C   C61       1.0  0.21685  0.96191  0.37379  1.0000 -0.0505746525
C   C62       1.0  0.48604  0.63306  0.22193  1.0000 -0.1053387263
C   C63       1.0  0.58214  0.79820  0.40742  1.0000 -0.1568889459
C   C64       1.0  0.45427  0.73460  0.25836  1.0000 0.0710213823
C   C65       1.0  0.64353  0.79500  0.42751  1.0000 -0.0906958742
C   C66       1.0  0.58481  0.80400  0.36978  1.0000 0.0710213823
C   C67       1.0  0.45591  0.77300  0.29332  1.0000 0.0787324445
C   C68       1.0  0.28381  0.99045  0.37883  1.0000 -0.0906958742
C   C69       1.0  0.45465  0.66329  0.19202  1.0000 -0.0505746525
C   C70       1.0  0.46054  0.84500  0.35894  1.0000 -0.2072933969
C   C71       1.0  0.42286  0.72965  0.19496  1.0000 -0.0990058043
C   C72       1.0  0.42286  0.76430  0.22802  1.0000 -0.1568889459
C   C73       1.0  0.26955  0.85990  0.34568  1.0000 -0.1568889459
C   C74       1.0  0.51591  0.77080  0.31495  1.0000 -0.2033566657
C   C75       1.0  0.21003  0.89670  0.35718  1.0000 -0.0906958742
C   C76       1.0  0.51891  0.80620  0.34788  1.0000 0.0787324445
C   C77       1.0  0.39819  0.81150  0.30541  1.0000 -0.2033566657
C   C78       1.0  0.39992  0.84780  0.33816  1.0000 0.0787324445
C   C79       1.0  0.33659  0.88740  0.35075  1.0000 0.0710213823
C   C80       1.0  0.48605  0.66850  0.25496  1.0000 -0.1568889459
C   C81       1.0  0.34295  0.95320  0.36750  1.0000 -0.154060159
C   C82       1.0  0.22525  0.20031  0.43196  1.0000 0.6202185911
C   C83       1.0  0.54567  0.37376  0.15656  1.0000 0.6202185911
C   C84       1.0  0.29203  0.20268  0.41067  1.0000 -0.0390059371
C   C85       1.0  0.84749  0.99939  0.38515  1.0000 0.6202185911
C   C86       1.0  0.28831  0.19722  0.37317  1.0000 -0.0906958742
C   C87       1.0  0.34981  0.19419  0.35315  1.0000 -0.1568889459
C   C88       1.0  0.78315  0.03809  0.37379  1.0000 -0.0505746525
C   C89       1.0  0.51396  0.36694  0.22193  1.0000 -0.1053387263
C   C90       1.0  0.41786  0.20180  0.40742  1.0000 -0.1568889459
C   C91       1.0  0.54573  0.26540  0.25836  1.0000 0.0710213823
C   C92       1.0  0.35647  0.20500  0.42751  1.0000 -0.0906958742
C   C93       1.0  0.41519  0.19600  0.36978  1.0000 0.0710213823
C   C94       1.0  0.54409  0.22700  0.29332  1.0000 0.0787324445
C   C95       1.0  0.71619  0.00955  0.37883  1.0000 -0.0906958742
C   C96       1.0  0.54535  0.33671  0.19202  1.0000 -0.0505746525
C   C97       1.0  0.53946  0.15500  0.35894  1.0000 -0.2072933969
C   C98       1.0  0.57714  0.27035  0.19496  1.0000 -0.0990058043
C   C99       1.0  0.57714  0.23570  0.22802  1.0000 -0.1568889459
C   C100      1.0  0.73045  0.14010  0.34568  1.0000 -0.1568889459
C   C101      1.0  0.48409  0.22920  0.31495  1.0000 -0.2033566657
C   C102      1.0  0.78997  0.10330  0.35718  1.0000 -0.0906958742
C   C103      1.0  0.48109  0.19380  0.34788  1.0000 0.0787324445
C   C104      1.0  0.60181  0.18850  0.30541  1.0000 -0.2033566657
C   C105      1.0  0.60008  0.15220  0.33816  1.0000 0.0787324445
C   C106      1.0  0.66341  0.11260  0.35075  1.0000 0.0710213823
C   C107      1.0  0.51395  0.33150  0.25496  1.0000 -0.1568889459
C   C108      1.0  0.65705  0.04680  0.36750  1.0000 -0.154060159
C   C109      1.0  0.20031  0.22525  0.56804  1.0000 0.6202185911
C   C110      1.0  0.37376  0.54567  0.84344  1.0000 0.6202185911
C   C111      1.0  0.20268  0.29203  0.58933  1.0000 -0.0390059371
C   C112      1.0  0.99939  0.84749  0.61485  1.0000 0.6202185911
C   C113      1.0  0.19722  0.28831  0.62683  1.0000 -0.0906958742
C   C114      1.0  0.19419  0.34981  0.64685  1.0000 -0.1568889459
C   C115      1.0  0.03809  0.78315  0.62621  1.0000 -0.0505746525
C   C116      1.0  0.36694  0.51396  0.77807  1.0000 -0.1053387263
C   C117      1.0  0.20180  0.41786  0.59258  1.0000 -0.1568889459
C   C118      1.0  0.26540  0.54573  0.74164  1.0000 0.0710213823
C   C119      1.0  0.20500  0.35647  0.57249  1.0000 -0.0906958742
C   C120      1.0  0.19600  0.41519  0.63022  1.0000 0.0710213823
C   C121      1.0  0.22700  0.54409  0.70668  1.0000 0.0787324445
C   C122      1.0  0.00955  0.71619  0.62117  1.0000 -0.0906958742
C   C123      1.0  0.33671  0.54535  0.80798  1.0000 -0.0505746525
C   C124      1.0  0.15500  0.53946  0.64106  1.0000 -0.2072933969
C   C125      1.0  0.27035  0.57714  0.80504  1.0000 -0.0990058043
C   C126      1.0  0.23570  0.57714  0.77198  1.0000 -0.1568889459
C   C127      1.0  0.14010  0.73045  0.65432  1.0000 -0.154060159
C   C128      1.0  0.22920  0.48409  0.68505  1.0000 -0.2033566657
C   C129      1.0  0.10330  0.78997  0.64282  1.0000 -0.0906958742
C   C130      1.0  0.19380  0.48109  0.65212  1.0000 0.0787324445
C   C131      1.0  0.18850  0.60181  0.69459  1.0000 -0.2033566657
C   C132      1.0  0.15220  0.60008  0.66184  1.0000 0.0787324445
C   C133      1.0  0.11260  0.66341  0.64925  1.0000 0.0710213823
C   C134      1.0  0.33150  0.51395  0.74504  1.0000 -0.1568889459
C   C135      1.0  0.04680  0.65705  0.63250  1.0000 -0.154060159
C   C136      1.0  0.79969  0.77475  0.56804  1.0000 0.6202185911
C   C137      1.0  0.62624  0.45433  0.84344  1.0000 0.6202185911
C   C138      1.0  0.79732  0.70797  0.58933  1.0000 -0.0390059371
C   C139      1.0  0.00061  0.15251  0.61485  1.0000 0.6202185911
C   C140      1.0  0.80278  0.71169  0.62683  1.0000 -0.0906958742
C   C141      1.0  0.80581  0.65019  0.64685  1.0000 -0.1568889459
C   C142      1.0  0.96191  0.21685  0.62621  1.0000 -0.0505746525
C   C143      1.0  0.63306  0.48604  0.77807  1.0000 -0.1053387263
C   C144      1.0  0.79820  0.58214  0.59258  1.0000 -0.1568889459
C   C145      1.0  0.73460  0.45427  0.74164  1.0000 0.0710213823
C   C146      1.0  0.79500  0.64353  0.57249  1.0000 -0.0906958742
C   C147      1.0  0.80400  0.58481  0.63022  1.0000 0.0710213823
C   C148      1.0  0.77300  0.45591  0.70668  1.0000 0.0787324445
C   C149      1.0  0.99045  0.28381  0.62117  1.0000 -0.0906958742
C   C150      1.0  0.66329  0.45465  0.80798  1.0000 -0.0505746525
C   C151      1.0  0.84500  0.46054  0.64106  1.0000 -0.2072933969
C   C152      1.0  0.72965  0.42286  0.80504  1.0000 -0.0990058043
C   C153      1.0  0.76430  0.42286  0.77198  1.0000 -0.1568889459
C   C154      1.0  0.85990  0.26955  0.65432  1.0000 -0.154060159
C   C155      1.0  0.77080  0.51591  0.68505  1.0000 -0.2033566657
C   C156      1.0  0.89670  0.21003  0.64282  1.0000 -0.0906958742
C   C157      1.0  0.80620  0.51891  0.65212  1.0000 0.0787324445
C   C158      1.0  0.81150  0.39819  0.69459  1.0000 -0.2033566657
C   C159      1.0  0.84780  0.39992  0.66184  1.0000 0.0787324445
C   C160      1.0  0.88740  0.33659  0.64925  1.0000 0.0710213823
C   C161      1.0  0.66850  0.48605  0.74504  1.0000 -0.1568889459
C   C162      1.0  0.95320  0.34295  0.63250  1.0000 -0.154060159
C   C163      1.0  0.72525  0.29969  0.06804  1.0000 0.6202185911
C   C164      1.0  0.04567  0.12624  0.34344  1.0000 0.6202185911
C   C165      1.0  0.79203  0.29732  0.08933  1.0000 -0.0390059371
C   C166      1.0  0.34749  0.50061  0.11485  1.0000 0.6202185911
C   C167      1.0  0.78831  0.30278  0.12683  1.0000 -0.0906958742
C   C168      1.0  0.84981  0.30581  0.14685  1.0000 -0.1568889459
C   C169      1.0  0.28315  0.46191  0.12621  1.0000 -0.0505746525
C   C170      1.0  0.01396  0.13306  0.27807  1.0000 -0.0990058043
C   C171      1.0  0.91786  0.29820  0.09258  1.0000 -0.1568889459
C   C172      1.0  0.04573  0.23460  0.24164  1.0000 0.0710213823
C   C173      1.0  0.85647  0.29500  0.07249  1.0000 -0.0906958742
C   C174      1.0  0.91519  0.30400  0.13022  1.0000 0.0710213823
C   C175      1.0  0.04409  0.27300  0.20668  1.0000 0.0787324445
C   C176      1.0  0.21619  0.49045  0.12117  1.0000 -0.0906958742
C   C177      1.0  0.04535  0.16329  0.30798  1.0000 -0.0505746525
C   C178      1.0  0.03946  0.34500  0.14106  1.0000 -0.2072933969
C   C179      1.0  0.07714  0.22965  0.30504  1.0000 -0.0990058043
C   C180      1.0  0.07714  0.26430  0.27198  1.0000 -0.1568889459
C   C181      1.0  0.23045  0.35990  0.15432  1.0000 -0.154060159
C   C182      1.0  0.98409  0.27080  0.18505  1.0000 -0.2033566657
C   C183      1.0  0.28997  0.39670  0.14282  1.0000 -0.0906958742
C   C184      1.0  0.98109  0.30620  0.15212  1.0000 0.0787324445
C   C185      1.0  0.10181  0.31150  0.19459  1.0000 -0.2033566657
C   C186      1.0  0.10008  0.34780  0.16184  1.0000 0.0787324445
C   C187      1.0  0.16341  0.38740  0.14925  1.0000 0.0710213823
C   C188      1.0  0.01395  0.16850  0.24504  1.0000 -0.1568889459
C   C189      1.0  0.15705  0.45320  0.13250  1.0000 -0.154060159
C   C190      1.0  0.27475  0.70031  0.06804  1.0000 0.6202185911
C   C191      1.0  0.95433  0.87376  0.34344  1.0000 0.6202185911
C   C192      1.0  0.20797  0.70268  0.08933  1.0000 -0.0390059371
C   C193      1.0  0.65251  0.49939  0.11485  1.0000 0.6202185911
C   C194      1.0  0.21169  0.69722  0.12683  1.0000 -0.0906958742
C   C195      1.0  0.15019  0.69419  0.14685  1.0000 -0.1568889459
C   C196      1.0  0.71685  0.53809  0.12621  1.0000 -0.0505746525
C   C197      1.0  0.98604  0.86694  0.27807  1.0000 -0.0990058043
C   C198      1.0  0.08214  0.70180  0.09258  1.0000 -0.1568889459
C   C199      1.0  0.95427  0.76540  0.24164  1.0000 0.0710213823
C   C200      1.0  0.14353  0.70500  0.07249  1.0000 -0.0906958742
C   C201      1.0  0.08481  0.69600  0.13022  1.0000 0.0710213823
C   C202      1.0  0.95591  0.72700  0.20668  1.0000 0.0787324445
C   C203      1.0  0.78381  0.50955  0.12117  1.0000 -0.0906958742
C   C204      1.0  0.95465  0.83671  0.30798  1.0000 -0.0505746525
C   C205      1.0  0.96054  0.65500  0.14106  1.0000 -0.2072933969
C   C206      1.0  0.92286  0.77035  0.30504  1.0000 -0.0990058043
C   C207      1.0  0.92286  0.73570  0.27198  1.0000 -0.1568889459
C   C208      1.0  0.76955  0.64010  0.15432  1.0000 -0.154060159
C   C209      1.0  0.01591  0.72920  0.18505  1.0000 -0.2033566657
C   C210      1.0  0.71003  0.60330  0.14282  1.0000 -0.0906958742
C   C211      1.0  0.01891  0.69380  0.15212  1.0000 0.0787324445
C   C212      1.0  0.89819  0.68850  0.19459  1.0000 -0.2033566657
C   C213      1.0  0.89992  0.65220  0.16184  1.0000 0.0787324445
C   C214      1.0  0.83659  0.61260  0.14925  1.0000 0.0710213823
C   C215      1.0  0.98605  0.83150  0.24504  1.0000 -0.1568889459
C   C216      1.0  0.84295  0.54680  0.13250  1.0000 -0.154060159
C   C217      1.0  0.16380  0.57050  0.94245  0.7300 -0.5904003681
C   C218      1.0  0.22590  0.46360  0.98538  0.7300 -0.5815858532
C   C219      1.0  0.83620  0.42950  0.94245  0.7300 -0.5904003681
C   C220      1.0  0.77410  0.53640  0.98538  0.7300 -0.5815858532
C   C221      1.0  0.92950  0.66380  0.44245  0.7300 -0.5904003681
C   C222      1.0  0.03640  0.72590  0.48538  0.7300 -0.5815858532
C   C223      1.0  0.07050  0.33620  0.44245  0.7300 -0.5904003681
C   C224      1.0  0.96360  0.27410  0.48538  0.7300 -0.5815858532
C   C225      1.0  0.33620  0.07050  0.55755  0.7300 -0.5904003681
C   C226      1.0  0.27410  0.96360  0.51462  0.7300 -0.5815858532
C   C227      1.0  0.66380  0.92950  0.55755  0.7300 -0.5904003681
C   C228      1.0  0.72590  0.03640  0.51462  0.7300 -0.5815858532
C   C229      1.0  0.57050  0.16380  0.05755  0.7300 -0.5904003681
C   C230      1.0  0.46360  0.22590  0.01462  0.7300 -0.5815858532
C   C231      1.0  0.42950  0.83620  0.05755  0.7300 -0.5904003681
C   C232      1.0  0.53640  0.77410  0.01462  0.7300 -0.5815858532
O   O1        1.0  0.30396  0.66844  0.91425  1.0000 -0.5904003681
O   O2        1.0  0.43388  0.52143  0.91764  1.0000 -1.0011767857
O   O3        1.0  0.39269  0.62346  0.96406  1.0000 -0.9691043982
O   O4        1.0  0.29823  0.72971  0.96596  1.0000 -0.5479604193
O   O5        1.0  0.56156  0.34066  0.89786  1.0000 -0.5815858532
O   O6        1.0  0.46828  0.40565  0.88094  1.0000 -0.5986854323
O   O7        1.0  0.06502  0.01951  0.65526  1.0000 -0.5815858532
O   O8        1.0  0.15900  0.07254  0.63018  1.0000 -0.5715484806
O   O9        1.0  0.29953  0.53111  0.93523  1.0000 -0.6764920393
O   O10       1.0  0.26506  0.59706  0.99081  1.0000 -0.6904381701
O   O11       1.0  0.69604  0.33156  0.91425  1.0000 -0.5904003681
O   O12       1.0  0.56612  0.47857  0.91764  1.0000 -1.0011767857
O   O13       1.0  0.60731  0.37654  0.96406  1.0000 -0.9691043982
O   O14       1.0  0.70177  0.27029  0.96596  1.0000 -0.5479604193
O   O15       1.0  0.43844  0.65934  0.89786  1.0000 -0.5815858532
O   O16       1.0  0.53172  0.59435  0.88094  1.0000 -0.5986854323
O   O17       1.0  0.93498  0.98049  0.65526  1.0000 -0.5815858532
O   O18       1.0  0.84100  0.92746  0.63018  1.0000 -0.5715484806
O   O19       1.0  0.70047  0.46889  0.93523  1.0000 -0.6764920393
O   O20       1.0  0.73494  0.40294  0.99081  1.0000 -0.6904381701
O   O21       1.0  0.83156  0.80396  0.41425  1.0000 -0.5904003681
O   O22       1.0  0.97857  0.93388  0.41764  1.0000 -1.0011767857
O   O23       1.0  0.87654  0.89269  0.46406  1.0000 -0.9691043982
O   O24       1.0  0.77029  0.79823  0.46596  1.0000 -0.5479604193
O   O25       1.0  0.15934  0.06156  0.39786  1.0000 -0.5815858532
O   O26       1.0  0.09435  0.96828  0.38094  1.0000 -0.5986854323
O   O27       1.0  0.48049  0.56502  0.15526  1.0000 -0.5815858532
O   O28       1.0  0.42746  0.65900  0.13018  1.0000 -0.5715484806
O   O29       1.0  0.96889  0.79953  0.43523  1.0000 -0.6764920393
O   O30       1.0  0.90294  0.76506  0.49081  1.0000 -0.6904381701
O   O31       1.0  0.16844  0.19604  0.41425  1.0000 -0.5904003681
O   O32       1.0  0.02143  0.06612  0.41764  1.0000 -1.0011767857
O   O33       1.0  0.12346  0.10731  0.46406  1.0000 -0.9691043982
O   O34       1.0  0.22971  0.20177  0.46596  1.0000 -0.5479604193
O   O35       1.0  0.84066  0.93844  0.39786  1.0000 -0.5815858532
O   O36       1.0  0.90565  0.03172  0.38094  1.0000 -0.5986854323
O   O37       1.0  0.51951  0.43498  0.15526  1.0000 -0.5815858532
O   O38       1.0  0.57254  0.34100  0.13018  1.0000 -0.5715484806
O   O39       1.0  0.03111  0.20047  0.43523  1.0000 -0.6764920393
O   O40       1.0  0.09706  0.23494  0.49081  1.0000 -0.6904381701
O   O41       1.0  0.19604  0.16844  0.58575  1.0000 -0.5904003681
O   O42       1.0  0.06612  0.02143  0.58236  1.0000 -1.0011767857
O   O43       1.0  0.10731  0.12346  0.53594  1.0000 -0.9691043982
O   O44       1.0  0.20177  0.22971  0.53404  1.0000 -0.5479604193
O   O45       1.0  0.93844  0.84066  0.60214  1.0000 -0.5815858532
O   O46       1.0  0.03172  0.90565  0.61906  1.0000 -0.5986854323
O   O47       1.0  0.43498  0.51951  0.84474  1.0000 -0.5815858532
O   O48       1.0  0.34100  0.57254  0.86982  1.0000 -0.5715484806
O   O49       1.0  0.20047  0.03111  0.56477  1.0000 -0.6764920393
O   O50       1.0  0.23494  0.09706  0.50919  1.0000 -0.6904381701
O   O51       1.0  0.80396  0.83156  0.58575  1.0000 -0.5904003681
O   O52       1.0  0.93388  0.97857  0.58236  1.0000 -1.0011767857
O   O53       1.0  0.89269  0.87654  0.53594  1.0000 -0.9691043982
O   O54       1.0  0.79823  0.77029  0.53404  1.0000 -0.5479604193
O   O55       1.0  0.06156  0.15934  0.60214  1.0000 -0.5815858532
O   O56       1.0  0.96828  0.09435  0.61906  1.0000 -0.5986854323
O   O57       1.0  0.56502  0.48049  0.84474  1.0000 -0.5815858532
O   O58       1.0  0.65900  0.42746  0.86982  1.0000 -0.5715484806
O   O59       1.0  0.79953  0.96889  0.56477  1.0000 -0.6764920393
O   O60       1.0  0.76506  0.90294  0.50919  1.0000 -0.6904381701
O   O61       1.0  0.66844  0.30396  0.08575  1.0000 -0.5904003681
O   O62       1.0  0.52143  0.43388  0.08236  1.0000 -1.0011767857
O   O63       1.0  0.62346  0.39269  0.03594  1.0000 -0.9691043982
O   O64       1.0  0.72971  0.29823  0.03404  1.0000 -0.5479604193
O   O65       1.0  0.34066  0.56156  0.10214  1.0000 -0.5815858532
O   O66       1.0  0.40565  0.46828  0.11906  1.0000 -0.5986854323
O   O67       1.0  0.01951  0.06502  0.34474  1.0000 -0.5815858532
O   O68       1.0  0.07254  0.15900  0.36982  1.0000 -0.5715484806
O   O69       1.0  0.53111  0.29953  0.06477  1.0000 -0.6764920393
O   O70       1.0  0.59706  0.26506  0.00919  1.0000 -0.6904381701
O   O71       1.0  0.33156  0.69604  0.08575  1.0000 -0.5904003681
O   O72       1.0  0.47857  0.56612  0.08236  1.0000 -1.0011767857
O   O73       1.0  0.37654  0.60731  0.03594  1.0000 -0.9691043982
O   O74       1.0  0.27029  0.70177  0.03404  1.0000 -0.5479604193
O   O75       1.0  0.65934  0.43844  0.10214  1.0000 -0.5815858532
O   O76       1.0  0.59435  0.53172  0.11906  1.0000 -0.5986854323
O   O77       1.0  0.98049  0.93498  0.34474  1.0000 -0.5815858532
O   O78       1.0  0.92746  0.84100  0.36982  1.0000 -0.5715484806
O   O79       1.0  0.46889  0.70047  0.06477  1.0000 -0.6764920393
O   O80       1.0  0.40294  0.73494  0.00919  1.0000 -0.6904381701
