# DDEC6 charges by PACMAN v1.1 (https://github.com/mtap-research/PACMAN-charge/)
data_2016[Zn][sql]2[FSR]1
_chemical_formula_sum              "Zn8 H208 C256 N32 O48"
_cell_length_a       10.972
_cell_length_b       16.101
_cell_length_c       37.978
_cell_angle_alpha    90
_cell_angle_beta     90
_cell_angle_gamma    90

_symmetry_space_group_name_H-M    "P 1"
_symmetry_Int_Tables_number       1

loop_
  _symmetry_equiv_pos_as_xyz
  'x, y, z'

loop_
  _atom_site_type_symbol
  _atom_site_label
  _atom_site_symmetry_multiplicity
  _atom_site_fract_x
  _atom_site_fract_y
  _atom_site_fract_z
  _atom_site_occupancy
  _atom_site_charge
Zn  Zn1       1.0  0.09022  0.88037  0.65241  1.0000 0.7591622552
Zn  Zn2       1.0  0.90978  0.38037  0.84759  1.0000 0.7591622552
Zn  Zn3       1.0  0.59022  0.88037  0.84759  1.0000 0.7591622552
Zn  Zn4       1.0  0.40978  0.38037  0.65241  1.0000 0.7591622552
Zn  Zn5       1.0  0.40978  0.11963  0.15241  1.0000 0.7591622552
Zn  Zn6       1.0  0.59022  0.61963  0.34759  1.0000 0.7591622552
Zn  Zn7       1.0  0.90978  0.11963  0.34759  1.0000 0.7591622552
Zn  Zn8       1.0  0.09022  0.61963  0.15241  1.0000 0.7591622552
H   H1        1.0  0.74880  0.40840  0.78420  1.0000 0.1201456873
H   H2        1.0  0.25120  0.90840  0.71580  1.0000 0.1201456873
H   H3        1.0  0.24880  0.40840  0.71580  1.0000 0.1201456873
H   H4        1.0  0.75120  0.90840  0.78420  1.0000 0.1201456873
H   H5        1.0  0.73520  0.36940  0.72730  1.0000 0.139600811
H   H6        1.0  0.26480  0.86940  0.77270  1.0000 0.139600811
H   H7        1.0  0.23520  0.36940  0.77270  1.0000 0.139600811
H   H8        1.0  0.76480  0.86940  0.72730  1.0000 0.139600811
H   H9        1.0  0.04850  0.24440  0.73850  1.0000 0.139600811
H   H10       1.0  0.95150  0.74440  0.76150  1.0000 0.139600811
H   H11       1.0  0.54850  0.24440  0.76150  1.0000 0.139600811
H   H12       1.0  0.45150  0.74440  0.73850  1.0000 0.139600811
H   H13       1.0  0.05110  0.28370  0.79570  1.0000 0.1107476878
H   H14       1.0  0.94890  0.78370  0.70430  1.0000 0.1107476878
H   H15       1.0  0.55110  0.28370  0.70430  1.0000 0.1107476878
H   H16       1.0  0.44890  0.78370  0.79570  1.0000 0.1107476878
H   H17       1.0  0.84550  0.12170  0.69170  1.0000 0.139600811
H   H18       1.0  0.15450  0.62170  0.80830  1.0000 0.139600811
H   H19       1.0  0.34550  0.12170  0.80830  1.0000 0.139600811
H   H20       1.0  0.65450  0.62170  0.69170  1.0000 0.139600811
H   H21       1.0  0.88470  0.98460  0.67990  1.0000 0.1107476878
H   H22       1.0  0.11530  0.48460  0.82010  1.0000 0.1107476878
H   H23       1.0  0.38470  0.98460  0.82010  1.0000 0.1107476878
H   H24       1.0  0.61530  0.48460  0.67990  1.0000 0.1107476878
H   H25       1.0  0.16480  0.04380  0.62190  1.0000 0.1201456873
H   H26       1.0  0.83520  0.54380  0.87810  1.0000 0.1201456873
H   H27       1.0  0.66480  0.04380  0.87810  1.0000 0.1201456873
H   H28       1.0  0.33520  0.54380  0.62190  1.0000 0.1201456873
H   H29       1.0  0.14290  0.17910  0.63440  1.0000 0.1536699837
H   H30       1.0  0.85710  0.67910  0.86560  1.0000 0.1536699837
H   H31       1.0  0.64290  0.17910  0.86560  1.0000 0.1536699837
H   H32       1.0  0.35710  0.67910  0.63440  1.0000 0.1536699837
H   H33       1.0  0.92830  0.41790  0.63710  1.0000 0.1107476878
H   H34       1.0  0.07170  0.91790  0.86290  1.0000 0.1107476878
H   H35       1.0  0.42830  0.41790  0.86290  1.0000 0.1107476878
H   H36       1.0  0.57170  0.91790  0.63710  1.0000 0.1107476878
H   H37       1.0  0.78330  0.44750  0.59540  1.0000 0.1201456873
H   H38       1.0  0.21670  0.94750  0.90460  1.0000 0.1201456873
H   H39       1.0  0.28330  0.44750  0.90460  1.0000 0.1201456873
H   H40       1.0  0.71670  0.94750  0.59540  1.0000 0.1201456873
H   H41       1.0  0.03320  0.42580  0.51930  1.0000 0.1107476878
H   H42       1.0  0.96680  0.92580  0.98070  1.0000 0.1107476878
H   H43       1.0  0.53320  0.42580  0.98070  1.0000 0.1107476878
H   H44       1.0  0.46680  0.92580  0.51930  1.0000 0.1107476878
H   H45       1.0  0.18140  0.40330  0.56110  1.0000 0.1107476878
H   H46       1.0  0.81860  0.90330  0.93890  1.0000 0.1107476878
H   H47       1.0  0.68140  0.40330  0.93890  1.0000 0.1107476878
H   H48       1.0  0.31860  0.90330  0.56110  1.0000 0.1107476878
H   H49       1.0  0.81440  0.35280  0.49990  1.0000 0.139600811
H   H50       1.0  0.18560  0.85280  0.00010  1.0000 0.139600811
H   H51       1.0  0.31440  0.35280  0.00010  1.0000 0.139600811
H   H52       1.0  0.68560  0.85280  0.49990  1.0000 0.139600811
H   H53       1.0  0.61440  0.60520  0.49810  1.0000 0.1298265705
H   H54       1.0  0.38560  0.10520  0.00190  1.0000 0.1298265705
H   H55       1.0  0.11440  0.60520  0.00190  1.0000 0.1298265705
H   H56       1.0  0.88560  0.10520  0.49810  1.0000 0.1298265705
H   H57       1.0  0.60280  0.63770  0.56640  1.0000 0.1201456873
H   H58       1.0  0.39720  0.13770  0.93360  1.0000 0.1201456873
H   H59       1.0  0.10280  0.63770  0.93360  1.0000 0.1201456873
H   H60       1.0  0.89720  0.13770  0.56640  1.0000 0.1201456873
H   H61       1.0  0.65750  0.73530  0.60810  1.0000 0.1107476878
H   H62       1.0  0.34250  0.23530  0.89190  1.0000 0.1107476878
H   H63       1.0  0.15750  0.73530  0.89190  1.0000 0.1107476878
H   H64       1.0  0.84250  0.23530  0.60810  1.0000 0.1107476878
H   H65       1.0  0.00910  0.69840  0.58410  1.0000 0.1201456873
H   H66       1.0  0.99090  0.19840  0.91590  1.0000 0.1201456873
H   H67       1.0  0.50910  0.69840  0.91590  1.0000 0.1201456873
H   H68       1.0  0.49090  0.19840  0.58410  1.0000 0.1201456873
H   H69       1.0  0.95390  0.60220  0.54220  1.0000 0.1107476878
H   H70       1.0  0.04610  0.10220  0.95780  1.0000 0.1107476878
H   H71       1.0  0.45390  0.60220  0.95780  1.0000 0.1107476878
H   H72       1.0  0.54610  0.10220  0.54220  1.0000 0.1107476878
H   H73       1.0  0.44480  0.58700  0.42130  1.0000 0.1298265705
H   H74       1.0  0.55520  0.08700  0.07870  1.0000 0.1298265705
H   H75       1.0  0.94480  0.58700  0.07870  1.0000 0.1298265705
H   H76       1.0  0.05520  0.08700  0.42130  1.0000 0.1298265705
H   H77       1.0  0.55930  0.62910  0.43840  1.0000 0.1201456873
H   H78       1.0  0.44070  0.12910  0.06160  1.0000 0.1201456873
H   H79       1.0  0.05930  0.62910  0.06160  1.0000 0.1201456873
H   H80       1.0  0.94070  0.12910  0.43840  1.0000 0.1201456873
H   H81       1.0  0.45090  0.59950  0.46220  1.0000 0.1107476878
H   H82       1.0  0.54910  0.09950  0.03780  1.0000 0.1107476878
H   H83       1.0  0.95090  0.59950  0.03780  1.0000 0.1107476878
H   H84       1.0  0.04910  0.09950  0.46220  1.0000 0.1107476878
H   H85       1.0  0.68410  0.25080  0.42980  1.0000 0.1298265705
H   H86       1.0  0.31590  0.75080  0.07020  1.0000 0.1298265705
H   H87       1.0  0.18410  0.25080  0.07020  1.0000 0.1298265705
H   H88       1.0  0.81590  0.75080  0.42980  1.0000 0.1298265705
H   H89       1.0  0.68560  0.25750  0.47100  1.0000 0.1201456873
H   H90       1.0  0.31440  0.75750  0.02900  1.0000 0.1201456873
H   H91       1.0  0.18560  0.25750  0.02900  1.0000 0.1201456873
H   H92       1.0  0.81440  0.75750  0.47100  1.0000 0.1201456873
H   H93       1.0  0.79900  0.28650  0.44920  1.0000 0.1201456873
H   H94       1.0  0.20100  0.78650  0.05080  1.0000 0.1201456873
H   H95       1.0  0.29900  0.28650  0.05080  1.0000 0.1201456873
H   H96       1.0  0.70100  0.78650  0.44920  1.0000 0.1201456873
H   H97       1.0  0.01900  0.27700  0.66940  1.0000 0.2302338145
H   H98       1.0  0.98100  0.77700  0.83060  1.0000 0.2302338145
H   H99       1.0  0.51900  0.27700  0.83060  1.0000 0.2302338145
H   H100      1.0  0.48100  0.77700  0.66940  1.0000 0.2302338145
H   H101      1.0  0.82400  0.28800  0.68060  1.0000 0.2577241664
H   H102      1.0  0.17600  0.78800  0.81940  1.0000 0.2577241664
H   H103      1.0  0.32400  0.28800  0.81940  1.0000 0.2577241664
H   H104      1.0  0.67600  0.78800  0.68060  1.0000 0.2577241664
H   H105      1.0  0.75120  0.59160  0.28420  1.0000 0.1201456873
H   H106      1.0  0.24880  0.09160  0.21580  1.0000 0.1201456873
H   H107      1.0  0.25120  0.59160  0.21580  1.0000 0.1201456873
H   H108      1.0  0.74880  0.09160  0.28420  1.0000 0.1201456873
H   H109      1.0  0.76480  0.63060  0.22730  1.0000 0.139600811
H   H110      1.0  0.23520  0.13060  0.27270  1.0000 0.139600811
H   H111      1.0  0.26480  0.63060  0.27270  1.0000 0.139600811
H   H112      1.0  0.73520  0.13060  0.22730  1.0000 0.139600811
H   H113      1.0  0.45150  0.75560  0.23850  1.0000 0.139600811
H   H114      1.0  0.54850  0.25560  0.26150  1.0000 0.139600811
H   H115      1.0  0.95150  0.75560  0.26150  1.0000 0.139600811
H   H116      1.0  0.04850  0.25560  0.23850  1.0000 0.139600811
H   H117      1.0  0.44890  0.71630  0.29570  1.0000 0.1107476878
H   H118      1.0  0.55110  0.21630  0.20430  1.0000 0.1107476878
H   H119      1.0  0.94890  0.71630  0.20430  1.0000 0.1107476878
H   H120      1.0  0.05110  0.21630  0.29570  1.0000 0.1107476878
H   H121      1.0  0.65450  0.87830  0.19170  1.0000 0.139600811
H   H122      1.0  0.34550  0.37830  0.30830  1.0000 0.139600811
H   H123      1.0  0.15450  0.87830  0.30830  1.0000 0.139600811
H   H124      1.0  0.84550  0.37830  0.19170  1.0000 0.139600811
H   H125      1.0  0.61530  0.01540  0.17990  1.0000 0.1107476878
H   H126      1.0  0.38470  0.51540  0.32010  1.0000 0.1107476878
H   H127      1.0  0.11530  0.01540  0.32010  1.0000 0.1107476878
H   H128      1.0  0.88470  0.51540  0.17990  1.0000 0.1107476878
H   H129      1.0  0.33520  0.95620  0.12190  1.0000 0.1201456873
H   H130      1.0  0.66480  0.45620  0.37810  1.0000 0.1201456873
H   H131      1.0  0.83520  0.95620  0.37810  1.0000 0.1201456873
H   H132      1.0  0.16480  0.45620  0.12190  1.0000 0.1201456873
H   H133      1.0  0.35710  0.82090  0.13440  1.0000 0.1536699837
H   H134      1.0  0.64290  0.32090  0.36560  1.0000 0.1536699837
H   H135      1.0  0.85710  0.82090  0.36560  1.0000 0.1536699837
H   H136      1.0  0.14290  0.32090  0.13440  1.0000 0.1536699837
H   H137      1.0  0.57170  0.58210  0.13710  1.0000 0.1107476878
H   H138      1.0  0.42830  0.08210  0.36290  1.0000 0.1107476878
H   H139      1.0  0.07170  0.58210  0.36290  1.0000 0.1107476878
H   H140      1.0  0.92830  0.08210  0.13710  1.0000 0.1107476878
H   H141      1.0  0.71670  0.55250  0.09540  1.0000 0.1201456873
H   H142      1.0  0.28330  0.05250  0.40460  1.0000 0.1201456873
H   H143      1.0  0.21670  0.55250  0.40460  1.0000 0.1201456873
H   H144      1.0  0.78330  0.05250  0.09540  1.0000 0.1201456873
H   H145      1.0  0.46680  0.57420  0.01930  1.0000 0.1107476878
H   H146      1.0  0.53320  0.07420  0.48070  1.0000 0.1107476878
H   H147      1.0  0.96680  0.57420  0.48070  1.0000 0.1107476878
H   H148      1.0  0.03320  0.07420  0.01930  1.0000 0.1107476878
H   H149      1.0  0.31860  0.59670  0.06110  1.0000 0.1107476878
H   H150      1.0  0.68140  0.09670  0.43890  1.0000 0.1107476878
H   H151      1.0  0.81860  0.59670  0.43890  1.0000 0.1107476878
H   H152      1.0  0.18140  0.09670  0.06110  1.0000 0.1107476878
H   H153      1.0  0.68560  0.64720  0.99990  1.0000 0.139600811
H   H154      1.0  0.31440  0.14720  0.50010  1.0000 0.139600811
H   H155      1.0  0.18560  0.64720  0.50010  1.0000 0.139600811
H   H156      1.0  0.81440  0.14720  0.99990  1.0000 0.139600811
H   H157      1.0  0.88560  0.39480  0.99810  1.0000 0.1298265705
H   H158      1.0  0.11440  0.89480  0.50190  1.0000 0.1298265705
H   H159      1.0  0.38560  0.39480  0.50190  1.0000 0.1298265705
H   H160      1.0  0.61440  0.89480  0.99810  1.0000 0.1298265705
H   H161      1.0  0.89720  0.36230  0.06640  1.0000 0.1201456873
H   H162      1.0  0.10280  0.86230  0.43360  1.0000 0.1201456873
H   H163      1.0  0.39720  0.36230  0.43360  1.0000 0.1201456873
H   H164      1.0  0.60280  0.86230  0.06640  1.0000 0.1201456873
H   H165      1.0  0.84250  0.26470  0.10810  1.0000 0.1107476878
H   H166      1.0  0.15750  0.76470  0.39190  1.0000 0.1107476878
H   H167      1.0  0.34250  0.26470  0.39190  1.0000 0.1107476878
H   H168      1.0  0.65750  0.76470  0.10810  1.0000 0.1107476878
H   H169      1.0  0.49090  0.30160  0.08410  1.0000 0.1201456873
H   H170      1.0  0.50910  0.80160  0.41590  1.0000 0.1201456873
H   H171      1.0  0.99090  0.30160  0.41590  1.0000 0.1201456873
H   H172      1.0  0.00910  0.80160  0.08410  1.0000 0.1201456873
H   H173      1.0  0.54610  0.39780  0.04220  1.0000 0.1107476878
H   H174      1.0  0.45390  0.89780  0.45780  1.0000 0.1107476878
H   H175      1.0  0.04610  0.39780  0.45780  1.0000 0.1107476878
H   H176      1.0  0.95390  0.89780  0.04220  1.0000 0.1107476878
H   H177      1.0  0.05520  0.41300  0.92130  1.0000 0.1298265705
H   H178      1.0  0.94480  0.91300  0.57870  1.0000 0.1298265705
H   H179      1.0  0.55520  0.41300  0.57870  1.0000 0.1298265705
H   H180      1.0  0.44480  0.91300  0.92130  1.0000 0.1298265705
H   H181      1.0  0.94070  0.37090  0.93840  1.0000 0.1201456873
H   H182      1.0  0.05930  0.87090  0.56160  1.0000 0.1201456873
H   H183      1.0  0.44070  0.37090  0.56160  1.0000 0.1201456873
H   H184      1.0  0.55930  0.87090  0.93840  1.0000 0.1201456873
H   H185      1.0  0.04910  0.40050  0.96220  1.0000 0.1107476878
H   H186      1.0  0.95090  0.90050  0.53780  1.0000 0.1107476878
H   H187      1.0  0.54910  0.40050  0.53780  1.0000 0.1107476878
H   H188      1.0  0.45090  0.90050  0.96220  1.0000 0.1107476878
H   H189      1.0  0.81590  0.74920  0.92980  1.0000 0.1298265705
H   H190      1.0  0.18410  0.24920  0.57020  1.0000 0.1298265705
H   H191      1.0  0.31590  0.74920  0.57020  1.0000 0.1298265705
H   H192      1.0  0.68410  0.24920  0.92980  1.0000 0.1298265705
H   H193      1.0  0.81440  0.74250  0.97100  1.0000 0.1201456873
H   H194      1.0  0.18560  0.24250  0.52900  1.0000 0.1201456873
H   H195      1.0  0.31440  0.74250  0.52900  1.0000 0.1201456873
H   H196      1.0  0.68560  0.24250  0.97100  1.0000 0.1201456873
H   H197      1.0  0.70100  0.71350  0.94920  1.0000 0.1201456873
H   H198      1.0  0.29900  0.21350  0.55080  1.0000 0.1201456873
H   H199      1.0  0.20100  0.71350  0.55080  1.0000 0.1201456873
H   H200      1.0  0.79900  0.21350  0.94920  1.0000 0.1201456873
H   H201      1.0  0.48100  0.72300  0.16940  1.0000 0.2302338145
H   H202      1.0  0.51900  0.22300  0.33060  1.0000 0.2302338145
H   H203      1.0  0.98100  0.72300  0.33060  1.0000 0.2302338145
H   H204      1.0  0.01900  0.22300  0.16940  1.0000 0.2302338145
H   H205      1.0  0.67600  0.71200  0.18060  1.0000 0.2577241664
H   H206      1.0  0.32400  0.21200  0.31940  1.0000 0.2577241664
H   H207      1.0  0.17600  0.71200  0.31940  1.0000 0.2577241664
H   H208      1.0  0.82400  0.21200  0.18060  1.0000 0.2577241664
C   C1        1.0  0.80870  0.37370  0.77503  1.0000 0.0752657359
C   C2        1.0  0.19130  0.87370  0.72497  1.0000 0.0752657359
C   C3        1.0  0.30870  0.37370  0.72497  1.0000 0.0752657359
C   C4        1.0  0.69130  0.87370  0.77503  1.0000 0.0752657359
C   C5        1.0  0.80090  0.35170  0.74078  1.0000 -0.2506575728
C   C6        1.0  0.19910  0.85170  0.75922  1.0000 -0.2506575728
C   C7        1.0  0.30090  0.35170  0.75922  1.0000 -0.2506575728
C   C8        1.0  0.69910  0.85170  0.74078  1.0000 -0.2506575728
C   C9        1.0  0.89140  0.30250  0.72572  1.0000 0.2302338145
C   C10       1.0  0.10860  0.80250  0.77428  1.0000 0.2302338145
C   C11       1.0  0.39140  0.30250  0.77428  1.0000 0.2302338145
C   C12       1.0  0.60860  0.80250  0.72572  1.0000 0.2302338145
C   C13       1.0  0.98590  0.27730  0.74739  1.0000 -0.2297870207
C   C14       1.0  0.01410  0.77730  0.75261  1.0000 -0.2297870207
C   C15       1.0  0.48590  0.27730  0.75261  1.0000 -0.2297870207
C   C16       1.0  0.51410  0.77730  0.74739  1.0000 -0.2297870207
C   C17       1.0  0.98630  0.30100  0.78168  1.0000 0.0725911967
C   C18       1.0  0.01370  0.80100  0.71832  1.0000 0.0725911967
C   C19       1.0  0.48630  0.30100  0.71832  1.0000 0.0725911967
C   C20       1.0  0.51370  0.80100  0.78168  1.0000 0.0725911967
C   C21       1.0  0.99320  0.16760  0.66577  1.0000 0.2302338145
C   C22       1.0  0.00680  0.66760  0.83423  1.0000 0.2302338145
C   C23       1.0  0.49320  0.16760  0.83423  1.0000 0.2302338145
C   C24       1.0  0.50680  0.66760  0.66577  1.0000 0.2302338145
C   C25       1.0  0.91340  0.10700  0.67846  1.0000 -0.2410668939
C   C26       1.0  0.08660  0.60700  0.82154  1.0000 -0.2410668939
C   C27       1.0  0.41340  0.10700  0.82154  1.0000 -0.2410668939
C   C28       1.0  0.58660  0.60700  0.67846  1.0000 -0.2410668939
C   C29       1.0  0.93730  0.02470  0.67095  1.0000 0.0725911967
C   C30       1.0  0.06270  0.52470  0.82905  1.0000 0.0725911967
C   C31       1.0  0.43730  0.02470  0.82905  1.0000 0.0725911967
C   C32       1.0  0.56270  0.52470  0.67095  1.0000 0.0725911967
C   C33       1.0  0.10290  0.05950  0.63727  1.0000 0.1013941398
C   C34       1.0  0.89710  0.55950  0.86273  1.0000 0.1013941398
C   C35       1.0  0.60290  0.05950  0.86273  1.0000 0.1013941398
C   C36       1.0  0.39710  0.55950  0.63727  1.0000 0.1013941398
C   C37       1.0  0.08920  0.14070  0.64402  1.0000 -0.2410668939
C   C38       1.0  0.91080  0.64070  0.85598  1.0000 -0.2410668939
C   C39       1.0  0.58920  0.14070  0.85598  1.0000 -0.2410668939
C   C40       1.0  0.41080  0.64070  0.64402  1.0000 -0.2410668939
C   C41       1.0  0.16600  0.39080  0.63034  1.0000 0.5436330145
C   C42       1.0  0.83400  0.89080  0.86966  1.0000 0.5436330145
C   C43       1.0  0.66600  0.39080  0.86966  1.0000 0.5436330145
C   C44       1.0  0.33400  0.89080  0.63034  1.0000 0.5436330145
C   C45       1.0  0.07090  0.40780  0.60335  1.0000 -0.0436969692
C   C46       1.0  0.92910  0.90780  0.89665  1.0000 -0.0436969692
C   C47       1.0  0.57090  0.40780  0.89665  1.0000 -0.0436969692
C   C48       1.0  0.42910  0.90780  0.60335  1.0000 -0.0436969692
C   C49       1.0  0.95000  0.42090  0.61345  1.0000 -0.0977842728
C   C50       1.0  0.05000  0.92090  0.88655  1.0000 -0.0977842728
C   C51       1.0  0.45000  0.42090  0.88655  1.0000 -0.0977842728
C   C52       1.0  0.55000  0.92090  0.61345  1.0000 -0.0977842728
C   C53       1.0  0.86340  0.43810  0.58847  1.0000 -0.1310700992
C   C54       1.0  0.13660  0.93810  0.91153  1.0000 -0.1310700992
C   C55       1.0  0.36340  0.43810  0.91153  1.0000 -0.1310700992
C   C56       1.0  0.63660  0.93810  0.58847  1.0000 -0.1310700992
C   C57       1.0  0.89310  0.44200  0.55293  1.0000 0.0725911967
C   C58       1.0  0.10690  0.94200  0.94707  1.0000 0.0725911967
C   C59       1.0  0.39310  0.44200  0.94707  1.0000 0.0725911967
C   C60       1.0  0.60690  0.94200  0.55293  1.0000 0.0725911967
C   C61       1.0  0.01250  0.42620  0.54302  1.0000 -0.1567232277
C   C62       1.0  0.98750  0.92620  0.95698  1.0000 -0.1567232277
C   C63       1.0  0.51250  0.42620  0.95698  1.0000 -0.1567232277
C   C64       1.0  0.48750  0.92620  0.54302  1.0000 -0.1567232277
C   C65       1.0  0.10090  0.41120  0.56803  1.0000 -0.1119750034
C   C66       1.0  0.89910  0.91120  0.93197  1.0000 -0.1119750034
C   C67       1.0  0.60090  0.41120  0.93197  1.0000 -0.1119750034
C   C68       1.0  0.39910  0.91120  0.56803  1.0000 -0.1119750034
C   C69       1.0  0.80150  0.46290  0.52547  1.0000 0.0214648191
C   C70       1.0  0.19850  0.96290  0.97453  1.0000 0.0214648191
C   C71       1.0  0.30150  0.46290  0.97453  1.0000 0.0214648191
C   C72       1.0  0.69850  0.96290  0.52547  1.0000 0.0214648191
C   C73       1.0  0.77480  0.40390  0.49948  1.0000 -0.2826576689
C   C74       1.0  0.22520  0.90390  0.00052  1.0000 -0.2826576689
C   C75       1.0  0.27480  0.40390  0.00052  1.0000 -0.2826576689
C   C76       1.0  0.72520  0.90390  0.49948  1.0000 -0.2826576689
C   C77       1.0  0.69210  0.41980  0.47361  1.0000 0.139600811
C   C78       1.0  0.30790  0.91980  0.02639  1.0000 0.139600811
C   C79       1.0  0.19210  0.41980  0.02639  1.0000 0.139600811
C   C80       1.0  0.80790  0.91980  0.47361  1.0000 0.139600811
C   C81       1.0  0.63230  0.49790  0.47256  1.0000 0.1566039366
C   C82       1.0  0.36770  0.99790  0.02744  1.0000 0.1566039366
C   C83       1.0  0.13230  0.49790  0.02744  1.0000 0.1566039366
C   C84       1.0  0.86770  0.99790  0.47256  1.0000 0.1566039366
C   C85       1.0  0.65640  0.55510  0.49831  1.0000 -0.2729208943
C   C86       1.0  0.34360  0.05510  0.00169  1.0000 -0.2729208943
C   C87       1.0  0.15640  0.55510  0.00169  1.0000 -0.2826576689
C   C88       1.0  0.84360  0.05510  0.49831  1.0000 -0.2729208943
C   C89       1.0  0.74180  0.54060  0.52484  1.0000 0.025099563
C   C90       1.0  0.25820  0.04060  0.97516  1.0000 0.025099563
C   C91       1.0  0.24180  0.54060  0.97516  1.0000 0.025099563
C   C92       1.0  0.75820  0.04060  0.52484  1.0000 0.025099563
C   C93       1.0  0.77290  0.60660  0.55064  1.0000 0.0752657359
C   C94       1.0  0.22710  0.10660  0.94936  1.0000 0.0752657359
C   C95       1.0  0.27290  0.60660  0.94936  1.0000 0.0752657359
C   C96       1.0  0.72710  0.10660  0.55064  1.0000 0.0752657359
C   C97       1.0  0.68480  0.64920  0.57023  1.0000 -0.1470683734
C   C98       1.0  0.31520  0.14920  0.92977  1.0000 -0.1470683734
C   C99       1.0  0.18480  0.64920  0.92977  1.0000 -0.1470683734
C   C100      1.0  0.81520  0.14920  0.57023  1.0000 -0.1470683734
C   C101      1.0  0.71740  0.70810  0.59523  1.0000 -0.1167881707
C   C102      1.0  0.28260  0.20810  0.90477  1.0000 -0.1167881707
C   C103      1.0  0.21740  0.70810  0.90477  1.0000 -0.1167881707
C   C104      1.0  0.78260  0.20810  0.59523  1.0000 -0.1167881707
C   C105      1.0  0.83940  0.72620  0.60092  1.0000 -0.0312673191
C   C106      1.0  0.16060  0.22620  0.89908  1.0000 -0.0312673191
C   C107      1.0  0.33940  0.72620  0.89908  1.0000 -0.0312673191
C   C108      1.0  0.66060  0.22620  0.60092  1.0000 -0.0312673191
C   C109      1.0  0.92720  0.68600  0.58074  1.0000 -0.1119750034
C   C110      1.0  0.07280  0.18600  0.91926  1.0000 -0.1119750034
C   C111      1.0  0.42720  0.68600  0.91926  1.0000 -0.1119750034
C   C112      1.0  0.57280  0.18600  0.58074  1.0000 -0.1119750034
C   C113      1.0  0.89400  0.62770  0.55577  1.0000 -0.1470683734
C   C114      1.0  0.10600  0.12770  0.94423  1.0000 -0.1470683734
C   C115      1.0  0.39400  0.62770  0.94423  1.0000 -0.1470683734
C   C116      1.0  0.60600  0.12770  0.55577  1.0000 -0.1470683734
C   C117      1.0  0.88070  0.78800  0.62810  1.0000 0.5506596943
C   C118      1.0  0.11930  0.28800  0.87190  1.0000 0.5506596943
C   C119      1.0  0.38070  0.78800  0.87190  1.0000 0.5506596943
C   C120      1.0  0.61930  0.28800  0.62810  1.0000 0.5506596943
C   C121      1.0  0.49760  0.58740  0.44148  1.0000 -0.2297870207
C   C122      1.0  0.50240  0.08740  0.05852  1.0000 -0.2297870207
C   C123      1.0  0.99760  0.58740  0.05852  1.0000 -0.2297870207
C   C124      1.0  0.00240  0.08740  0.44148  1.0000 -0.2297870207
C   C125      1.0  0.71170  0.28320  0.44951  1.0000 -0.2297870207
C   C126      1.0  0.28830  0.78320  0.05049  1.0000 -0.2297870207
C   C127      1.0  0.21170  0.28320  0.05049  1.0000 -0.2297870207
C   C128      1.0  0.78830  0.78320  0.44951  1.0000 -0.2297870207
C   C129      1.0  0.69130  0.62630  0.27503  1.0000 0.0752657359
C   C130      1.0  0.30870  0.12630  0.22497  1.0000 0.0752657359
C   C131      1.0  0.19130  0.62630  0.22497  1.0000 0.0752657359
C   C132      1.0  0.80870  0.12630  0.27503  1.0000 0.0752657359
C   C133      1.0  0.69910  0.64830  0.24078  1.0000 -0.2506575728
C   C134      1.0  0.30090  0.14830  0.25922  1.0000 -0.2506575728
C   C135      1.0  0.19910  0.64830  0.25922  1.0000 -0.2506575728
C   C136      1.0  0.80090  0.14830  0.24078  1.0000 -0.2506575728
C   C137      1.0  0.60860  0.69750  0.22572  1.0000 0.2302338145
C   C138      1.0  0.39140  0.19750  0.27428  1.0000 0.2302338145
C   C139      1.0  0.10860  0.69750  0.27428  1.0000 0.2302338145
C   C140      1.0  0.89140  0.19750  0.22572  1.0000 0.2302338145
C   C141      1.0  0.51410  0.72270  0.24739  1.0000 -0.2297870207
C   C142      1.0  0.48590  0.22270  0.25261  1.0000 -0.2297870207
C   C143      1.0  0.01410  0.72270  0.25261  1.0000 -0.2297870207
C   C144      1.0  0.98590  0.22270  0.24739  1.0000 -0.2297870207
C   C145      1.0  0.51370  0.69900  0.28168  1.0000 0.0725911967
C   C146      1.0  0.48630  0.19900  0.21832  1.0000 0.0725911967
C   C147      1.0  0.01370  0.69900  0.21832  1.0000 0.0725911967
C   C148      1.0  0.98630  0.19900  0.28168  1.0000 0.0725911967
C   C149      1.0  0.50680  0.83240  0.16577  1.0000 0.2302338145
C   C150      1.0  0.49320  0.33240  0.33423  1.0000 0.2302338145
C   C151      1.0  0.00680  0.83240  0.33423  1.0000 0.2302338145
C   C152      1.0  0.99320  0.33240  0.16577  1.0000 0.2302338145
C   C153      1.0  0.58660  0.89300  0.17846  1.0000 -0.2410668939
C   C154      1.0  0.41340  0.39300  0.32154  1.0000 -0.2410668939
C   C155      1.0  0.08660  0.89300  0.32154  1.0000 -0.2410668939
C   C156      1.0  0.91340  0.39300  0.17846  1.0000 -0.2410668939
C   C157      1.0  0.56270  0.97530  0.17095  1.0000 0.0725911967
C   C158      1.0  0.43730  0.47530  0.32905  1.0000 0.0725911967
C   C159      1.0  0.06270  0.97530  0.32905  1.0000 0.0725911967
C   C160      1.0  0.93730  0.47530  0.17095  1.0000 0.0725911967
C   C161      1.0  0.39710  0.94050  0.13727  1.0000 0.1013941398
C   C162      1.0  0.60290  0.44050  0.36273  1.0000 0.1013941398
C   C163      1.0  0.89710  0.94050  0.36273  1.0000 0.1013941398
C   C164      1.0  0.10290  0.44050  0.13727  1.0000 0.1013941398
C   C165      1.0  0.41080  0.85930  0.14402  1.0000 -0.2410668939
C   C166      1.0  0.58920  0.35930  0.35598  1.0000 -0.2410668939
C   C167      1.0  0.91080  0.85930  0.35598  1.0000 -0.2410668939
C   C168      1.0  0.08920  0.35930  0.14402  1.0000 -0.2410668939
C   C169      1.0  0.33400  0.60920  0.13034  1.0000 0.5436330145
C   C170      1.0  0.66600  0.10920  0.36966  1.0000 0.5436330145
C   C171      1.0  0.83400  0.60920  0.36966  1.0000 0.5436330145
C   C172      1.0  0.16600  0.10920  0.13034  1.0000 0.5436330145
C   C173      1.0  0.42910  0.59220  0.10335  1.0000 -0.0436969692
C   C174      1.0  0.57090  0.09220  0.39665  1.0000 -0.0436969692
C   C175      1.0  0.92910  0.59220  0.39665  1.0000 -0.0436969692
C   C176      1.0  0.07090  0.09220  0.10335  1.0000 -0.0436969692
C   C177      1.0  0.55000  0.57910  0.11345  1.0000 -0.0977842728
C   C178      1.0  0.45000  0.07910  0.38655  1.0000 -0.0977842728
C   C179      1.0  0.05000  0.57910  0.38655  1.0000 -0.0977842728
C   C180      1.0  0.95000  0.07910  0.11345  1.0000 -0.0977842728
C   C181      1.0  0.63660  0.56190  0.08847  1.0000 -0.1310700992
C   C182      1.0  0.36340  0.06190  0.41153  1.0000 -0.1310700992
C   C183      1.0  0.13660  0.56190  0.41153  1.0000 -0.1310700992
C   C184      1.0  0.86340  0.06190  0.08847  1.0000 -0.1310700992
C   C185      1.0  0.60690  0.55800  0.05293  1.0000 0.0725911967
C   C186      1.0  0.39310  0.05800  0.44707  1.0000 0.0725911967
C   C187      1.0  0.10690  0.55800  0.44707  1.0000 0.0725911967
C   C188      1.0  0.89310  0.05800  0.05293  1.0000 0.0725911967
C   C189      1.0  0.48750  0.57380  0.04302  1.0000 -0.1567232277
C   C190      1.0  0.51250  0.07380  0.45698  1.0000 -0.1567232277
C   C191      1.0  0.98750  0.57380  0.45698  1.0000 -0.1567232277
C   C192      1.0  0.01250  0.07380  0.04302  1.0000 -0.1567232277
C   C193      1.0  0.39910  0.58880  0.06803  1.0000 -0.1119750034
C   C194      1.0  0.60090  0.08880  0.43197  1.0000 -0.1119750034
C   C195      1.0  0.89910  0.58880  0.43197  1.0000 -0.1119750034
C   C196      1.0  0.10090  0.08880  0.06803  1.0000 -0.1119750034
C   C197      1.0  0.69850  0.53710  0.02547  1.0000 0.0214648191
C   C198      1.0  0.30150  0.03710  0.47453  1.0000 0.0214648191
C   C199      1.0  0.19850  0.53710  0.47453  1.0000 0.0214648191
C   C200      1.0  0.80150  0.03710  0.02547  1.0000 0.0214648191
C   C201      1.0  0.72520  0.59610  0.99948  1.0000 -0.2826576689
C   C202      1.0  0.27480  0.09610  0.50052  1.0000 -0.2826576689
C   C203      1.0  0.22520  0.59610  0.50052  1.0000 -0.2826576689
C   C204      1.0  0.77480  0.09610  0.99948  1.0000 -0.2826576689
C   C205      1.0  0.80790  0.58020  0.97361  1.0000 0.139600811
C   C206      1.0  0.19210  0.08020  0.52639  1.0000 0.139600811
C   C207      1.0  0.30790  0.58020  0.52639  1.0000 0.139600811
C   C208      1.0  0.69210  0.08020  0.97361  1.0000 0.139600811
C   C209      1.0  0.86770  0.50210  0.97256  1.0000 0.1566039366
C   C210      1.0  0.13230  0.00210  0.52744  1.0000 0.1566039366
C   C211      1.0  0.36770  0.50210  0.52744  1.0000 0.1566039366
C   C212      1.0  0.63230  0.00210  0.97256  1.0000 0.1566039366
C   C213      1.0  0.84360  0.44490  0.99831  1.0000 -0.2729208943
C   C214      1.0  0.15640  0.94490  0.50169  1.0000 -0.2826576689
C   C215      1.0  0.34360  0.44490  0.50169  1.0000 -0.2729208943
C   C216      1.0  0.65640  0.94490  0.99831  1.0000 -0.2729208943
C   C217      1.0  0.75820  0.45940  0.02484  1.0000 0.025099563
C   C218      1.0  0.24180  0.95940  0.47516  1.0000 0.025099563
C   C219      1.0  0.25820  0.45940  0.47516  1.0000 0.025099563
C   C220      1.0  0.74180  0.95940  0.02484  1.0000 0.025099563
C   C221      1.0  0.72710  0.39340  0.05064  1.0000 0.0752657359
C   C222      1.0  0.27290  0.89340  0.44936  1.0000 0.0752657359
C   C223      1.0  0.22710  0.39340  0.44936  1.0000 0.0752657359
C   C224      1.0  0.77290  0.89340  0.05064  1.0000 0.0752657359
C   C225      1.0  0.81520  0.35080  0.07023  1.0000 -0.1470683734
C   C226      1.0  0.18480  0.85080  0.42977  1.0000 -0.1470683734
C   C227      1.0  0.31520  0.35080  0.42977  1.0000 -0.1470683734
C   C228      1.0  0.68480  0.85080  0.07023  1.0000 -0.1470683734
C   C229      1.0  0.78260  0.29190  0.09523  1.0000 -0.1167881707
C   C230      1.0  0.21740  0.79190  0.40477  1.0000 -0.1167881707
C   C231      1.0  0.28260  0.29190  0.40477  1.0000 -0.1167881707
C   C232      1.0  0.71740  0.79190  0.09523  1.0000 -0.1167881707
C   C233      1.0  0.66060  0.27380  0.10092  1.0000 -0.0312673191
C   C234      1.0  0.33940  0.77380  0.39908  1.0000 -0.0312673191
C   C235      1.0  0.16060  0.27380  0.39908  1.0000 -0.0312673191
C   C236      1.0  0.83940  0.77380  0.10092  1.0000 -0.0312673191
C   C237      1.0  0.57280  0.31400  0.08074  1.0000 -0.1119750034
C   C238      1.0  0.42720  0.81400  0.41926  1.0000 -0.1119750034
C   C239      1.0  0.07280  0.31400  0.41926  1.0000 -0.1119750034
C   C240      1.0  0.92720  0.81400  0.08074  1.0000 -0.1119750034
C   C241      1.0  0.60600  0.37230  0.05577  1.0000 -0.1470683734
C   C242      1.0  0.39400  0.87230  0.44423  1.0000 -0.1470683734
C   C243      1.0  0.10600  0.37230  0.44423  1.0000 -0.1470683734
C   C244      1.0  0.89400  0.87230  0.05577  1.0000 -0.1470683734
C   C245      1.0  0.61930  0.21200  0.12810  1.0000 0.5506596943
C   C246      1.0  0.38070  0.71200  0.37190  1.0000 0.5506596943
C   C247      1.0  0.11930  0.21200  0.37190  1.0000 0.5506596943
C   C248      1.0  0.88070  0.71200  0.12810  1.0000 0.5506596943
C   C249      1.0  0.00240  0.41260  0.94148  1.0000 -0.2297870207
C   C250      1.0  0.99760  0.91260  0.55852  1.0000 -0.2297870207
C   C251      1.0  0.50240  0.41260  0.55852  1.0000 -0.2297870207
C   C252      1.0  0.49760  0.91260  0.94148  1.0000 -0.2297870207
C   C253      1.0  0.78830  0.71680  0.94951  1.0000 -0.2297870207
C   C254      1.0  0.21170  0.21680  0.55049  1.0000 -0.2297870207
C   C255      1.0  0.28830  0.71680  0.55049  1.0000 -0.2297870207
C   C256      1.0  0.71170  0.21680  0.94951  1.0000 -0.2297870207
N   N1        1.0  0.03330  0.99930  0.65123  1.0000 -0.2729208943
N   N2        1.0  0.96670  0.49930  0.84877  1.0000 -0.2729208943
N   N3        1.0  0.53330  0.99930  0.84877  1.0000 -0.2729208943
N   N4        1.0  0.46670  0.49930  0.65123  1.0000 -0.2729208943
N   N5        1.0  0.98090  0.24870  0.67380  1.0000 -0.1918359393
N   N6        1.0  0.01910  0.74870  0.82620  1.0000 -0.1918359393
N   N7        1.0  0.48090  0.24870  0.82620  1.0000 -0.1918359393
N   N8        1.0  0.51910  0.74870  0.67380  1.0000 -0.1918359393
N   N9        1.0  0.88140  0.27940  0.69151  1.0000 -0.2180292433
N   N10       1.0  0.11860  0.77940  0.80849  1.0000 -0.2180292433
N   N11       1.0  0.38140  0.27940  0.80849  1.0000 -0.2180292433
N   N12       1.0  0.61860  0.77940  0.69151  1.0000 -0.2180292433
N   N13       1.0  0.89940  0.34780  0.79679  1.0000 -0.2559556098
N   N14       1.0  0.10060  0.84780  0.70321  1.0000 -0.2559556098
N   N15       1.0  0.39940  0.34780  0.70321  1.0000 -0.2559556098
N   N16       1.0  0.60060  0.84780  0.79679  1.0000 -0.2559556098
N   N17       1.0  0.46670  0.00070  0.15123  1.0000 -0.2729208943
N   N18       1.0  0.53330  0.50070  0.34877  1.0000 -0.2729208943
N   N19       1.0  0.96670  0.00070  0.34877  1.0000 -0.2729208943
N   N20       1.0  0.03330  0.50070  0.15123  1.0000 -0.2729208943
N   N21       1.0  0.51910  0.75130  0.17380  1.0000 -0.1918359393
N   N22       1.0  0.48090  0.25130  0.32620  1.0000 -0.1918359393
N   N23       1.0  0.01910  0.75130  0.32620  1.0000 -0.1918359393
N   N24       1.0  0.98090  0.25130  0.17380  1.0000 -0.1918359393
N   N25       1.0  0.61860  0.72060  0.19151  1.0000 -0.2180292433
N   N26       1.0  0.38140  0.22060  0.30849  1.0000 -0.2180292433
N   N27       1.0  0.11860  0.72060  0.30849  1.0000 -0.2180292433
N   N28       1.0  0.88140  0.22060  0.19151  1.0000 -0.2180292433
N   N29       1.0  0.60060  0.65220  0.29679  1.0000 -0.2559556098
N   N30       1.0  0.39940  0.15220  0.20321  1.0000 -0.2559556098
N   N31       1.0  0.10060  0.65220  0.20321  1.0000 -0.2559556098
N   N32       1.0  0.89940  0.15220  0.29679  1.0000 -0.2559556098
O   O1        1.0  0.13670  0.38300  0.66180  1.0000 -0.5790035943
O   O2        1.0  0.86330  0.88300  0.83820  1.0000 -0.5790035943
O   O3        1.0  0.63670  0.38300  0.83820  1.0000 -0.5790035943
O   O4        1.0  0.36330  0.88300  0.66180  1.0000 -0.5790035943
O   O5        1.0  0.27430  0.38570  0.61953  1.0000 -0.5377388815
O   O6        1.0  0.72570  0.88570  0.88047  1.0000 -0.5377388815
O   O7        1.0  0.77430  0.38570  0.88047  1.0000 -0.5377388815
O   O8        1.0  0.22570  0.88570  0.61953  1.0000 -0.5377388815
O   O9        1.0  0.80790  0.82680  0.64687  1.0000 -0.5851761321
O   O10       1.0  0.19210  0.32680  0.85313  1.0000 -0.5851761321
O   O11       1.0  0.30790  0.82680  0.85313  1.0000 -0.5851761321
O   O12       1.0  0.69210  0.32680  0.64687  1.0000 -0.5851761321
O   O13       1.0  0.99610  0.79480  0.63030  1.0000 -0.5508710364
O   O14       1.0  0.00390  0.29480  0.86970  1.0000 -0.5508710364
O   O15       1.0  0.49610  0.79480  0.86970  1.0000 -0.5508710364
O   O16       1.0  0.50390  0.29480  0.63030  1.0000 -0.5508710364
O   O17       1.0  0.55430  0.50740  0.44515  1.0000 -0.1392122949
O   O18       1.0  0.44570  0.00740  0.05485  1.0000 -0.1392122949
O   O19       1.0  0.05430  0.50740  0.05485  1.0000 -0.1392122949
O   O20       1.0  0.94570  0.00740  0.44515  1.0000 -0.1392122949
O   O21       1.0  0.66120  0.36550  0.44728  1.0000 -0.1567232277
O   O22       1.0  0.33880  0.86550  0.05272  1.0000 -0.1567232277
O   O23       1.0  0.16120  0.36550  0.05272  1.0000 -0.1567232277
O   O24       1.0  0.83880  0.86550  0.44728  1.0000 -0.1567232277
O   O25       1.0  0.36330  0.61700  0.16180  1.0000 -0.5790035943
O   O26       1.0  0.63670  0.11700  0.33820  1.0000 -0.5790035943
O   O27       1.0  0.86330  0.61700  0.33820  1.0000 -0.5790035943
O   O28       1.0  0.13670  0.11700  0.16180  1.0000 -0.5790035943
O   O29       1.0  0.22570  0.61430  0.11953  1.0000 -0.5377388815
O   O30       1.0  0.77430  0.11430  0.38047  1.0000 -0.5377388815
O   O31       1.0  0.72570  0.61430  0.38047  1.0000 -0.5377388815
O   O32       1.0  0.27430  0.11430  0.11953  1.0000 -0.5377388815
O   O33       1.0  0.69210  0.17320  0.14687  1.0000 -0.5851761321
O   O34       1.0  0.30790  0.67320  0.35313  1.0000 -0.5851761321
O   O35       1.0  0.19210  0.17320  0.35313  1.0000 -0.5851761321
O   O36       1.0  0.80790  0.67320  0.14687  1.0000 -0.5851761321
O   O37       1.0  0.50390  0.20520  0.13030  1.0000 -0.5508710364
O   O38       1.0  0.49610  0.70520  0.36970  1.0000 -0.5508710364
O   O39       1.0  0.00390  0.20520  0.36970  1.0000 -0.5508710364
O   O40       1.0  0.99610  0.70520  0.13030  1.0000 -0.5508710364
O   O41       1.0  0.94570  0.49260  0.94515  1.0000 -0.1392122949
O   O42       1.0  0.05430  0.99260  0.55485  1.0000 -0.1392122949
O   O43       1.0  0.44570  0.49260  0.55485  1.0000 -0.1392122949
O   O44       1.0  0.55430  0.99260  0.94515  1.0000 -0.1392122949
O   O45       1.0  0.83880  0.63450  0.94728  1.0000 -0.1567232277
O   O46       1.0  0.16120  0.13450  0.55272  1.0000 -0.1567232277
O   O47       1.0  0.33880  0.63450  0.55272  1.0000 -0.1567232277
O   O48       1.0  0.66120  0.13450  0.94728  1.0000 -0.1567232277
