# DDEC6 charges by PACMAN v1.1 (https://github.com/mtap-research/PACMAN-charge/)
data_2020[Zn][nan]3[FSR]16
_chemical_formula_sum              "Zn16 H128 C192 N48 O32"
_cell_length_a       14.8436
_cell_length_b       16.3246
_cell_length_c       27.5747
_cell_angle_alpha    90
_cell_angle_beta     90
_cell_angle_gamma    90

_symmetry_space_group_name_H-M    "P 1"
_symmetry_Int_Tables_number       1

loop_
  _symmetry_equiv_pos_as_xyz
  'x, y, z'

loop_
  _atom_site_type_symbol
  _atom_site_label
  _atom_site_symmetry_multiplicity
  _atom_site_fract_x
  _atom_site_fract_y
  _atom_site_fract_z
  _atom_site_occupancy
  _atom_site_charge
Zn  Zn1       1.0  0.95340  0.17137  0.89700  1.0000 0.6436553117
Zn  Zn2       1.0  0.04660  0.32863  0.39700  1.0000 0.6436553117
Zn  Zn3       1.0  0.45340  0.82863  0.39700  1.0000 0.6436553117
Zn  Zn4       1.0  0.54660  0.67137  0.89700  1.0000 0.6436553117
Zn  Zn5       1.0  0.04651  0.28463  0.79141  1.0000 0.6461152848
Zn  Zn6       1.0  0.95349  0.21537  0.29141  1.0000 0.6461152848
Zn  Zn7       1.0  0.54651  0.71537  0.29141  1.0000 0.6461152848
Zn  Zn8       1.0  0.45349  0.78463  0.79141  1.0000 0.6461152848
Zn  Zn9       1.0  0.54660  0.17137  0.60300  1.0000 0.6436553117
Zn  Zn10      1.0  0.45340  0.32863  0.10300  1.0000 0.6436553117
Zn  Zn11      1.0  0.04660  0.82863  0.10300  1.0000 0.6436553117
Zn  Zn12      1.0  0.95340  0.67137  0.60300  1.0000 0.6436553117
Zn  Zn13      1.0  0.45349  0.28463  0.70859  1.0000 0.6461152848
Zn  Zn14      1.0  0.54651  0.21537  0.20859  1.0000 0.6461152848
Zn  Zn15      1.0  0.95349  0.71537  0.20859  1.0000 0.6461152848
Zn  Zn16      1.0  0.04651  0.78463  0.70859  1.0000 0.6461152848
H   H1        1.0  0.87750  0.40300  0.78750  1.0000 0.1101173309
H   H2        1.0  0.12250  0.09700  0.28750  1.0000 0.1101173309
H   H3        1.0  0.37750  0.59700  0.28750  1.0000 0.1101173309
H   H4        1.0  0.62250  0.90300  0.78750  1.0000 0.1101173309
H   H5        1.0  0.81210  0.31150  0.91650  1.0000 0.1264016589
H   H6        1.0  0.18790  0.18850  0.41650  1.0000 0.1264016589
H   H7        1.0  0.31210  0.68850  0.41650  1.0000 0.1264016589
H   H8        1.0  0.68790  0.81150  0.91650  1.0000 0.1264016589
H   H9        1.0  0.64670  0.54090  0.94920  1.0000 0.1101173309
H   H10       1.0  0.35330  0.95910  0.44920  1.0000 0.1101173309
H   H11       1.0  0.14670  0.45910  0.44920  1.0000 0.1101173309
H   H12       1.0  0.85330  0.04090  0.94920  1.0000 0.1101173309
H   H13       1.0  0.74760  0.43740  0.93570  1.0000 0.1378765995
H   H14       1.0  0.25240  0.06260  0.43570  1.0000 0.1378765995
H   H15       1.0  0.24760  0.56260  0.43570  1.0000 0.1378765995
H   H16       1.0  0.75240  0.93740  0.93570  1.0000 0.1378765995
H   H17       1.0  0.72400  0.48070  0.79320  1.0000 0.1264016589
H   H18       1.0  0.27600  0.01930  0.29320  1.0000 0.1264016589
H   H19       1.0  0.22400  0.51930  0.29320  1.0000 0.1264016589
H   H20       1.0  0.77600  0.98070  0.79320  1.0000 0.1264016589
H   H21       1.0  0.62470  0.58330  0.81120  1.0000 0.1101173309
H   H22       1.0  0.37530  0.91670  0.31120  1.0000 0.1101173309
H   H23       1.0  0.12470  0.41670  0.31120  1.0000 0.1101173309
H   H24       1.0  0.87530  0.08330  0.81120  1.0000 0.1101173309
H   H25       1.0  0.21790  0.16890  0.78780  1.0000 0.1184556137
H   H26       1.0  0.78210  0.33110  0.28780  1.0000 0.1184556137
H   H27       1.0  0.71790  0.83110  0.28780  1.0000 0.1184556137
H   H28       1.0  0.28210  0.66890  0.78780  1.0000 0.1184556137
H   H29       1.0  0.10390  0.03730  0.89130  1.0000 0.1184556137
H   H30       1.0  0.89610  0.46270  0.39130  1.0000 0.1184556137
H   H31       1.0  0.60390  0.96270  0.39130  1.0000 0.1184556137
H   H32       1.0  0.39610  0.53730  0.89130  1.0000 0.1184556137
H   H33       1.0  0.28930  0.82140  0.85020  1.0000 0.1101173309
H   H34       1.0  0.71070  0.67860  0.35020  1.0000 0.1101173309
H   H35       1.0  0.78930  0.17860  0.35020  1.0000 0.1101173309
H   H36       1.0  0.21070  0.32140  0.85020  1.0000 0.1101173309
H   H37       1.0  0.19290  0.92410  0.86760  1.0000 0.1264016589
H   H38       1.0  0.80710  0.57590  0.36760  1.0000 0.1264016589
H   H39       1.0  0.69290  0.07590  0.36760  1.0000 0.1264016589
H   H40       1.0  0.30710  0.42410  0.86760  1.0000 0.1264016589
H   H41       1.0  0.34780  0.07570  0.78890  1.0000 0.1378765995
H   H42       1.0  0.65220  0.42430  0.28890  1.0000 0.1378765995
H   H43       1.0  0.84780  0.92430  0.28890  1.0000 0.1378765995
H   H44       1.0  0.15220  0.57570  0.78890  1.0000 0.1378765995
H   H45       1.0  0.44050  0.96640  0.77270  1.0000 0.1047498029
H   H46       1.0  0.55950  0.53360  0.27270  1.0000 0.1047498029
H   H47       1.0  0.94050  0.03360  0.27270  1.0000 0.1047498029
H   H48       1.0  0.05950  0.46640  0.77270  1.0000 0.1047498029
H   H49       1.0  0.02770  0.09950  0.05600  1.0000 0.1101173309
H   H50       1.0  0.97230  0.40050  0.55600  1.0000 0.1101173309
H   H51       1.0  0.52770  0.90050  0.55600  1.0000 0.1101173309
H   H52       1.0  0.47230  0.59950  0.05600  1.0000 0.1101173309
H   H53       1.0  0.03240  0.10870  0.13940  1.0000 0.1101173309
H   H54       1.0  0.96760  0.39130  0.63940  1.0000 0.1101173309
H   H55       1.0  0.53240  0.89130  0.63940  1.0000 0.1101173309
H   H56       1.0  0.46760  0.60870  0.13940  1.0000 0.1101173309
H   H57       1.0  0.85620  0.29280  0.13300  1.0000 0.1184556137
H   H58       1.0  0.14380  0.20720  0.63300  1.0000 0.1184556137
H   H59       1.0  0.35620  0.70720  0.63300  1.0000 0.1184556137
H   H60       1.0  0.64380  0.79280  0.13300  1.0000 0.1184556137
H   H61       1.0  0.84500  0.27790  0.05200  1.0000 0.1184556137
H   H62       1.0  0.15500  0.22210  0.55200  1.0000 0.1264016589
H   H63       1.0  0.34500  0.72210  0.55200  1.0000 0.1184556137
H   H64       1.0  0.65500  0.77790  0.05200  1.0000 0.1264016589
H   H65       1.0  0.62250  0.40300  0.71250  1.0000 0.1101173309
H   H66       1.0  0.37750  0.09700  0.21250  1.0000 0.1101173309
H   H67       1.0  0.12250  0.59700  0.21250  1.0000 0.1101173309
H   H68       1.0  0.87750  0.90300  0.71250  1.0000 0.1101173309
H   H69       1.0  0.68790  0.31150  0.58350  1.0000 0.1264016589
H   H70       1.0  0.31210  0.18850  0.08350  1.0000 0.1264016589
H   H71       1.0  0.18790  0.68850  0.08350  1.0000 0.1264016589
H   H72       1.0  0.81210  0.81150  0.58350  1.0000 0.1264016589
H   H73       1.0  0.85330  0.54090  0.55080  1.0000 0.1101173309
H   H74       1.0  0.14670  0.95910  0.05080  1.0000 0.1101173309
H   H75       1.0  0.35330  0.45910  0.05080  1.0000 0.1101173309
H   H76       1.0  0.64670  0.04090  0.55080  1.0000 0.1101173309
H   H77       1.0  0.75240  0.43740  0.56430  1.0000 0.1378765995
H   H78       1.0  0.24760  0.06260  0.06430  1.0000 0.1378765995
H   H79       1.0  0.25240  0.56260  0.06430  1.0000 0.1378765995
H   H80       1.0  0.74760  0.93740  0.56430  1.0000 0.1378765995
H   H81       1.0  0.77600  0.48070  0.70680  1.0000 0.1264016589
H   H82       1.0  0.22400  0.01930  0.20680  1.0000 0.1264016589
H   H83       1.0  0.27600  0.51930  0.20680  1.0000 0.1264016589
H   H84       1.0  0.72400  0.98070  0.70680  1.0000 0.1264016589
H   H85       1.0  0.87530  0.58330  0.68880  1.0000 0.1101173309
H   H86       1.0  0.12470  0.91670  0.18880  1.0000 0.1101173309
H   H87       1.0  0.37530  0.41670  0.18880  1.0000 0.1101173309
H   H88       1.0  0.62470  0.08330  0.68880  1.0000 0.1101173309
H   H89       1.0  0.28210  0.16890  0.71220  1.0000 0.1184556137
H   H90       1.0  0.71790  0.33110  0.21220  1.0000 0.1184556137
H   H91       1.0  0.78210  0.83110  0.21220  1.0000 0.1184556137
H   H92       1.0  0.21790  0.66890  0.71220  1.0000 0.1184556137
H   H93       1.0  0.39610  0.03730  0.60870  1.0000 0.1184556137
H   H94       1.0  0.60390  0.46270  0.10870  1.0000 0.1184556137
H   H95       1.0  0.89610  0.96270  0.10870  1.0000 0.1184556137
H   H96       1.0  0.10390  0.53730  0.60870  1.0000 0.1184556137
H   H97       1.0  0.21070  0.82140  0.64980  1.0000 0.1101173309
H   H98       1.0  0.78930  0.67860  0.14980  1.0000 0.1101173309
H   H99       1.0  0.71070  0.17860  0.14980  1.0000 0.1101173309
H   H100      1.0  0.28930  0.32140  0.64980  1.0000 0.1101173309
H   H101      1.0  0.30710  0.92410  0.63240  1.0000 0.1264016589
H   H102      1.0  0.69290  0.57590  0.13240  1.0000 0.1264016589
H   H103      1.0  0.80710  0.07590  0.13240  1.0000 0.1264016589
H   H104      1.0  0.19290  0.42410  0.63240  1.0000 0.1264016589
H   H105      1.0  0.15220  0.07570  0.71110  1.0000 0.1378765995
H   H106      1.0  0.84780  0.42430  0.21110  1.0000 0.1378765995
H   H107      1.0  0.65220  0.92430  0.21110  1.0000 0.1378765995
H   H108      1.0  0.34780  0.57570  0.71110  1.0000 0.1378765995
H   H109      1.0  0.05950  0.96640  0.72730  1.0000 0.1047498029
H   H110      1.0  0.94050  0.53360  0.22730  1.0000 0.1047498029
H   H111      1.0  0.55950  0.03360  0.22730  1.0000 0.1047498029
H   H112      1.0  0.44050  0.46640  0.72730  1.0000 0.1047498029
H   H113      1.0  0.47230  0.09950  0.44400  1.0000 0.1101173309
H   H114      1.0  0.52770  0.40050  0.94400  1.0000 0.1101173309
H   H115      1.0  0.97230  0.90050  0.94400  1.0000 0.1101173309
H   H116      1.0  0.02770  0.59950  0.44400  1.0000 0.1101173309
H   H117      1.0  0.46760  0.10870  0.36060  1.0000 0.1101173309
H   H118      1.0  0.53240  0.39130  0.86060  1.0000 0.1101173309
H   H119      1.0  0.96760  0.89130  0.86060  1.0000 0.1101173309
H   H120      1.0  0.03240  0.60870  0.36060  1.0000 0.1101173309
H   H121      1.0  0.64380  0.29280  0.36700  1.0000 0.1184556137
H   H122      1.0  0.35620  0.20720  0.86700  1.0000 0.1184556137
H   H123      1.0  0.14380  0.70720  0.86700  1.0000 0.1184556137
H   H124      1.0  0.85620  0.79280  0.36700  1.0000 0.1184556137
H   H125      1.0  0.65500  0.27790  0.44800  1.0000 0.1184556137
H   H126      1.0  0.34500  0.22210  0.94800  1.0000 0.1184556137
H   H127      1.0  0.15500  0.72210  0.94800  1.0000 0.1184556137
H   H128      1.0  0.84500  0.77790  0.44800  1.0000 0.1264016589
C   C1        1.0  0.87540  0.37080  0.81530  1.0000 -0.0473176542
C   C2        1.0  0.12460  0.12920  0.31530  1.0000 -0.0473176542
C   C3        1.0  0.37540  0.62920  0.31530  1.0000 -0.0473176542
C   C4        1.0  0.62460  0.87080  0.81530  1.0000 -0.0473176542
C   C5        1.0  0.81660  0.38340  0.85526  1.0000 -0.0591525943
C   C6        1.0  0.18340  0.11660  0.35526  1.0000 -0.0591525943
C   C7        1.0  0.31660  0.61660  0.35526  1.0000 -0.0591525943
C   C8        1.0  0.68340  0.88340  0.85526  1.0000 -0.0591525943
C   C9        1.0  0.83920  0.32050  0.88660  1.0000 -0.0246227566
C   C10       1.0  0.16080  0.17950  0.38660  1.0000 -0.0256149478
C   C11       1.0  0.33920  0.67950  0.38660  1.0000 -0.0256149478
C   C12       1.0  0.66080  0.82050  0.88660  1.0000 -0.0256149478
C   C13       1.0  0.66360  0.52940  0.91740  1.0000 0.0909113702
C   C14       1.0  0.33640  0.97060  0.41740  1.0000 0.0909113702
C   C15       1.0  0.16360  0.47060  0.41740  1.0000 0.0909113702
C   C16       1.0  0.83640  0.02940  0.91740  1.0000 0.0909113702
C   C17       1.0  0.72450  0.46670  0.90960  1.0000 -0.1874315549
C   C18       1.0  0.27550  0.03330  0.40960  1.0000 -0.1874315549
C   C19       1.0  0.22450  0.53330  0.40960  1.0000 -0.1874315549
C   C20       1.0  0.77550  0.96670  0.90960  1.0000 -0.1874315549
C   C21       1.0  0.75070  0.44790  0.86322  1.0000 0.1378765995
C   C22       1.0  0.24930  0.05210  0.36322  1.0000 0.1378765995
C   C23       1.0  0.25070  0.55210  0.36322  1.0000 0.1378765995
C   C24       1.0  0.74930  0.94790  0.86322  1.0000 0.1378765995
C   C25       1.0  0.71040  0.49260  0.82540  1.0000 -0.2087774068
C   C26       1.0  0.28960  0.00740  0.32540  1.0000 -0.2087774068
C   C27       1.0  0.21040  0.50740  0.32540  1.0000 -0.2087774068
C   C28       1.0  0.78960  0.99260  0.82540  1.0000 -0.2087774068
C   C29       1.0  0.65060  0.55410  0.83653  1.0000 0.0704613378
C   C30       1.0  0.34940  0.94590  0.33653  1.0000 0.0704613378
C   C31       1.0  0.15060  0.44590  0.33653  1.0000 0.0704613378
C   C32       1.0  0.84940  0.05410  0.83653  1.0000 0.0704613378
C   C33       1.0  0.17870  0.15030  0.81160  1.0000 -0.0401032922
C   C34       1.0  0.82130  0.34970  0.31160  1.0000 -0.0401032922
C   C35       1.0  0.67870  0.84970  0.31160  1.0000 -0.0401032922
C   C36       1.0  0.32130  0.65030  0.81160  1.0000 -0.0401032922
C   C37       1.0  0.18920  0.07770  0.83703  1.0000 -0.0591525943
C   C38       1.0  0.81080  0.42230  0.33703  1.0000 -0.0591525943
C   C39       1.0  0.68920  0.92230  0.33703  1.0000 -0.0591525943
C   C40       1.0  0.31080  0.57770  0.83703  1.0000 -0.0591525943
C   C41       1.0  0.11630  0.07820  0.86880  1.0000 -0.0401032922
C   C42       1.0  0.88370  0.42180  0.36880  1.0000 -0.0401032922
C   C43       1.0  0.61630  0.92180  0.36880  1.0000 -0.0401032922
C   C44       1.0  0.38370  0.57820  0.86880  1.0000 -0.0401032922
C   C45       1.0  0.30050  0.87310  0.83740  1.0000 0.0704613378
C   C46       1.0  0.69950  0.62690  0.33740  1.0000 0.0704613378
C   C47       1.0  0.80050  0.12690  0.33740  1.0000 0.0704613378
C   C48       1.0  0.19950  0.37310  0.83740  1.0000 0.0704613378
C   C49       1.0  0.24250  0.93450  0.84780  1.0000 -0.1874315549
C   C50       1.0  0.75750  0.56550  0.34780  1.0000 -0.1874315549
C   C51       1.0  0.74250  0.06550  0.34780  1.0000 -0.1874315549
C   C52       1.0  0.25750  0.43450  0.84780  1.0000 -0.1874315549
C   C53       1.0  0.25600  0.01400  0.82926  1.0000 0.1378765995
C   C54       1.0  0.74400  0.48600  0.32926  1.0000 0.1378765995
C   C55       1.0  0.75600  0.98600  0.32926  1.0000 0.1378765995
C   C56       1.0  0.24400  0.51400  0.82926  1.0000 0.1378765995
C   C57       1.0  0.33370  0.02430  0.80130  1.0000 -0.204358894
C   C58       1.0  0.66630  0.47570  0.30130  1.0000 -0.204358894
C   C59       1.0  0.83370  0.97570  0.30130  1.0000 -0.204358894
C   C60       1.0  0.16630  0.52430  0.80130  1.0000 -0.204358894
C   C61       1.0  0.38980  0.95810  0.79190  1.0000 0.0909113702
C   C62       1.0  0.61020  0.54190  0.29190  1.0000 0.0909113702
C   C63       1.0  0.88980  0.04190  0.29190  1.0000 0.0909113702
C   C64       1.0  0.11020  0.45810  0.79190  1.0000 0.0909113702
C   C65       1.0  0.92530  0.18640  0.98900  1.0000 0.5336270746
C   C66       1.0  0.07470  0.31360  0.48900  1.0000 0.5336270746
C   C67       1.0  0.42530  0.81360  0.48900  1.0000 0.5336270746
C   C68       1.0  0.57470  0.68640  0.98900  1.0000 0.5336270746
C   C69       1.0  0.94580  0.20810  0.19880  1.0000 0.5235869404
C   C70       1.0  0.05420  0.29190  0.69880  1.0000 0.5235869404
C   C71       1.0  0.44580  0.79190  0.69880  1.0000 0.5235869404
C   C72       1.0  0.55420  0.70810  0.19880  1.0000 0.5235869404
C   C73       1.0  0.93570  0.18850  0.04540  1.0000 0.0041956908
C   C74       1.0  0.06430  0.31150  0.54540  1.0000 0.0041956908
C   C75       1.0  0.43570  0.81150  0.54540  1.0000 0.0041956908
C   C76       1.0  0.56430  0.68850  0.04540  1.0000 0.0041956908
C   C77       1.0  0.99200  0.13770  0.07190  1.0000 -0.1198381655
C   C78       1.0  0.00800  0.36230  0.57190  1.0000 -0.1198381655
C   C79       1.0  0.49200  0.86230  0.57190  1.0000 -0.1198381655
C   C80       1.0  0.50800  0.63770  0.07190  1.0000 -0.1198381655
C   C81       1.0  0.99530  0.14360  0.12180  1.0000 -0.1198381655
C   C82       1.0  0.00470  0.35640  0.62180  1.0000 -0.1198381655
C   C83       1.0  0.49530  0.85640  0.62180  1.0000 -0.1198381655
C   C84       1.0  0.50470  0.64360  0.12180  1.0000 -0.1198381655
C   C85       1.0  0.94350  0.20140  0.14550  1.0000 -0.0401032922
C   C86       1.0  0.05650  0.29860  0.64550  1.0000 -0.0401032922
C   C87       1.0  0.44350  0.79860  0.64550  1.0000 -0.0401032922
C   C88       1.0  0.55650  0.70140  0.14550  1.0000 -0.0401032922
C   C89       1.0  0.88960  0.25220  0.11770  1.0000 -0.1198381655
C   C90       1.0  0.11040  0.24780  0.61770  1.0000 -0.1198381655
C   C91       1.0  0.38960  0.74780  0.61770  1.0000 -0.1198381655
C   C92       1.0  0.61040  0.75220  0.11770  1.0000 -0.1148091439
C   C93       1.0  0.88420  0.24460  0.06930  1.0000 -0.1038647868
C   C94       1.0  0.11580  0.25540  0.56930  1.0000 -0.1038647868
C   C95       1.0  0.38420  0.75540  0.56930  1.0000 -0.1038647868
C   C96       1.0  0.61580  0.74460  0.06930  1.0000 -0.1038647868
C   C97       1.0  0.62460  0.37080  0.68470  1.0000 -0.0473176542
C   C98       1.0  0.37540  0.12920  0.18470  1.0000 -0.0473176542
C   C99       1.0  0.12460  0.62920  0.18470  1.0000 -0.0473176542
C   C100      1.0  0.87540  0.87080  0.68470  1.0000 -0.0473176542
C   C101      1.0  0.68340  0.38340  0.64474  1.0000 -0.0591525943
C   C102      1.0  0.31660  0.11660  0.14474  1.0000 -0.0591525943
C   C103      1.0  0.18340  0.61660  0.14474  1.0000 -0.0591525943
C   C104      1.0  0.81660  0.88340  0.64474  1.0000 -0.0591525943
C   C105      1.0  0.66080  0.32050  0.61340  1.0000 -0.0246227566
C   C106      1.0  0.33920  0.17950  0.11340  1.0000 -0.0256149478
C   C107      1.0  0.16080  0.67950  0.11340  1.0000 -0.0256149478
C   C108      1.0  0.83920  0.82050  0.61340  1.0000 -0.0246227566
C   C109      1.0  0.83640  0.52940  0.58260  1.0000 0.0909113702
C   C110      1.0  0.16360  0.97060  0.08260  1.0000 0.0909113702
C   C111      1.0  0.33640  0.47060  0.08260  1.0000 0.0909113702
C   C112      1.0  0.66360  0.02940  0.58260  1.0000 0.0909113702
C   C113      1.0  0.77550  0.46670  0.59040  1.0000 -0.1874315549
C   C114      1.0  0.22450  0.03330  0.09040  1.0000 -0.1874315549
C   C115      1.0  0.27550  0.53330  0.09040  1.0000 -0.1874315549
C   C116      1.0  0.72450  0.96670  0.59040  1.0000 -0.1874315549
C   C117      1.0  0.74930  0.44790  0.63678  1.0000 0.1378765995
C   C118      1.0  0.25070  0.05210  0.13678  1.0000 0.1378765995
C   C119      1.0  0.24930  0.55210  0.13678  1.0000 0.1378765995
C   C120      1.0  0.75070  0.94790  0.63678  1.0000 0.1378765995
C   C121      1.0  0.78960  0.49260  0.67460  1.0000 -0.2087774068
C   C122      1.0  0.21040  0.00740  0.17460  1.0000 -0.2087774068
C   C123      1.0  0.28960  0.50740  0.17460  1.0000 -0.2087774068
C   C124      1.0  0.71040  0.99260  0.67460  1.0000 -0.2087774068
C   C125      1.0  0.84940  0.55410  0.66347  1.0000 0.0704613378
C   C126      1.0  0.15060  0.94590  0.16347  1.0000 0.0704613378
C   C127      1.0  0.34940  0.44590  0.16347  1.0000 0.0704613378
C   C128      1.0  0.65060  0.05410  0.66347  1.0000 0.0704613378
C   C129      1.0  0.32130  0.15030  0.68840  1.0000 -0.0401032922
C   C130      1.0  0.67870  0.34970  0.18840  1.0000 -0.0401032922
C   C131      1.0  0.82130  0.84970  0.18840  1.0000 -0.0401032922
C   C132      1.0  0.17870  0.65030  0.68840  1.0000 -0.0401032922
C   C133      1.0  0.31080  0.07770  0.66297  1.0000 -0.0591525943
C   C134      1.0  0.68920  0.42230  0.16297  1.0000 -0.0591525943
C   C135      1.0  0.81080  0.92230  0.16297  1.0000 -0.0473176542
C   C136      1.0  0.18920  0.57770  0.66297  1.0000 -0.0473176542
C   C137      1.0  0.38370  0.07820  0.63120  1.0000 -0.0401032922
C   C138      1.0  0.61630  0.42180  0.13120  1.0000 -0.0401032922
C   C139      1.0  0.88370  0.92180  0.13120  1.0000 -0.0401032922
C   C140      1.0  0.11630  0.57820  0.63120  1.0000 -0.0401032922
C   C141      1.0  0.19950  0.87310  0.66260  1.0000 0.0704613378
C   C142      1.0  0.80050  0.62690  0.16260  1.0000 0.0704613378
C   C143      1.0  0.69950  0.12690  0.16260  1.0000 0.0704613378
C   C144      1.0  0.30050  0.37310  0.66260  1.0000 0.0704613378
C   C145      1.0  0.25750  0.93450  0.65220  1.0000 -0.1874315549
C   C146      1.0  0.74250  0.56550  0.15220  1.0000 -0.1874315549
C   C147      1.0  0.75750  0.06550  0.15220  1.0000 -0.1874315549
C   C148      1.0  0.24250  0.43450  0.65220  1.0000 -0.1874315549
C   C149      1.0  0.24400  0.01400  0.67074  1.0000 0.1378765995
C   C150      1.0  0.75600  0.48600  0.17074  1.0000 0.1378765995
C   C151      1.0  0.74400  0.98600  0.17074  1.0000 0.1378765995
C   C152      1.0  0.25600  0.51400  0.67074  1.0000 0.1378765995
C   C153      1.0  0.16630  0.02430  0.69870  1.0000 -0.204358894
C   C154      1.0  0.83370  0.47570  0.19870  1.0000 -0.204358894
C   C155      1.0  0.66630  0.97570  0.19870  1.0000 -0.204358894
C   C156      1.0  0.33370  0.52430  0.69870  1.0000 -0.204358894
C   C157      1.0  0.11020  0.95810  0.70810  1.0000 0.0909113702
C   C158      1.0  0.88980  0.54190  0.20810  1.0000 0.0909113702
C   C159      1.0  0.61020  0.04190  0.20810  1.0000 0.0909113702
C   C160      1.0  0.38980  0.45810  0.70810  1.0000 0.0909113702
C   C161      1.0  0.57470  0.18640  0.51100  1.0000 0.5336270746
C   C162      1.0  0.42530  0.31360  0.01100  1.0000 0.5336270746
C   C163      1.0  0.07470  0.81360  0.01100  1.0000 0.5336270746
C   C164      1.0  0.92530  0.68640  0.51100  1.0000 0.5336270746
C   C165      1.0  0.55420  0.20810  0.30120  1.0000 0.5235869404
C   C166      1.0  0.44580  0.29190  0.80120  1.0000 0.5235869404
C   C167      1.0  0.05420  0.79190  0.80120  1.0000 0.5235869404
C   C168      1.0  0.94580  0.70810  0.30120  1.0000 0.5235869404
C   C169      1.0  0.56430  0.18850  0.45460  1.0000 0.0041956908
C   C170      1.0  0.43570  0.31150  0.95460  1.0000 0.0041956908
C   C171      1.0  0.06430  0.81150  0.95460  1.0000 0.0041956908
C   C172      1.0  0.93570  0.68850  0.45460  1.0000 0.0041956908
C   C173      1.0  0.50800  0.13770  0.42810  1.0000 -0.1198381655
C   C174      1.0  0.49200  0.36230  0.92810  1.0000 -0.1198381655
C   C175      1.0  0.00800  0.86230  0.92810  1.0000 -0.1198381655
C   C176      1.0  0.99200  0.63770  0.42810  1.0000 -0.1198381655
C   C177      1.0  0.50470  0.14360  0.37820  1.0000 -0.1198381655
C   C178      1.0  0.49530  0.35640  0.87820  1.0000 -0.1198381655
C   C179      1.0  0.00470  0.85640  0.87820  1.0000 -0.1198381655
C   C180      1.0  0.99530  0.64360  0.37820  1.0000 -0.1198381655
C   C181      1.0  0.55650  0.20140  0.35450  1.0000 -0.0401032922
C   C182      1.0  0.44350  0.29860  0.85450  1.0000 -0.0401032922
C   C183      1.0  0.05650  0.79860  0.85450  1.0000 -0.0401032922
C   C184      1.0  0.94350  0.70140  0.35450  1.0000 -0.0401032922
C   C185      1.0  0.61040  0.25220  0.38230  1.0000 -0.1198381655
C   C186      1.0  0.38960  0.24780  0.88230  1.0000 -0.1148091439
C   C187      1.0  0.11040  0.74780  0.88230  1.0000 -0.1198381655
C   C188      1.0  0.88960  0.75220  0.38230  1.0000 -0.1148091439
C   C189      1.0  0.61580  0.24460  0.43070  1.0000 -0.1038647868
C   C190      1.0  0.38420  0.25540  0.93070  1.0000 -0.1038647868
C   C191      1.0  0.11580  0.75540  0.93070  1.0000 -0.1038647868
C   C192      1.0  0.88420  0.74460  0.43070  1.0000 -0.1038647868
N   N1        1.0  0.90400  0.27520  0.86840  1.0000 -0.1786304864
N   N2        1.0  0.09600  0.22480  0.36840  1.0000 -0.1786304864
N   N3        1.0  0.40400  0.72480  0.36840  1.0000 -0.1786304864
N   N4        1.0  0.59600  0.77520  0.86840  1.0000 -0.1786304864
N   N5        1.0  0.92700  0.30570  0.82391  1.0000 -0.1786304864
N   N6        1.0  0.07300  0.19430  0.32391  1.0000 -0.1786304864
N   N7        1.0  0.42700  0.69430  0.32391  1.0000 -0.1786304864
N   N8        1.0  0.57300  0.80570  0.82391  1.0000 -0.1786304864
N   N9        1.0  0.62780  0.57420  0.88203  1.0000 -0.2206832688
N   N10       1.0  0.37220  0.92580  0.38203  1.0000 -0.2206832688
N   N11       1.0  0.12780  0.42580  0.38203  1.0000 -0.2206832688
N   N12       1.0  0.87220  0.07420  0.88203  1.0000 -0.2206832688
N   N13       1.0  0.06710  0.14500  0.86264  1.0000 -0.1786304864
N   N14       1.0  0.93290  0.35500  0.36264  1.0000 -0.1786304864
N   N15       1.0  0.56710  0.85500  0.36264  1.0000 -0.1786304864
N   N16       1.0  0.43290  0.64500  0.86264  1.0000 -0.1786304864
N   N17       1.0  0.10490  0.18990  0.82597  1.0000 -0.1874315549
N   N18       1.0  0.89510  0.31010  0.32597  1.0000 -0.1874315549
N   N19       1.0  0.60490  0.81010  0.32597  1.0000 -0.1874315549
N   N20       1.0  0.39510  0.68990  0.82597  1.0000 -0.1874315549
N   N21       1.0  0.37400  0.88350  0.80920  1.0000 -0.2206832688
N   N22       1.0  0.62600  0.61650  0.30920  1.0000 -0.2206832688
N   N23       1.0  0.87400  0.11650  0.30920  1.0000 -0.2206832688
N   N24       1.0  0.12600  0.38350  0.80920  1.0000 -0.2206832688
N   N25       1.0  0.59600  0.27520  0.63160  1.0000 -0.1786304864
N   N26       1.0  0.40400  0.22480  0.13160  1.0000 -0.1786304864
N   N27       1.0  0.09600  0.72480  0.13160  1.0000 -0.1786304864
N   N28       1.0  0.90400  0.77520  0.63160  1.0000 -0.1786304864
N   N29       1.0  0.57300  0.30570  0.67609  1.0000 -0.1786304864
N   N30       1.0  0.42700  0.19430  0.17609  1.0000 -0.1786304864
N   N31       1.0  0.07300  0.69430  0.17609  1.0000 -0.1786304864
N   N32       1.0  0.92700  0.80570  0.67609  1.0000 -0.1786304864
N   N33       1.0  0.87220  0.57420  0.61797  1.0000 -0.2206832688
N   N34       1.0  0.12780  0.92580  0.11797  1.0000 -0.2206832688
N   N35       1.0  0.37220  0.42580  0.11797  1.0000 -0.2206832688
N   N36       1.0  0.62780  0.07420  0.61797  1.0000 -0.2206832688
N   N37       1.0  0.43290  0.14500  0.63736  1.0000 -0.1786304864
N   N38       1.0  0.56710  0.35500  0.13736  1.0000 -0.1786304864
N   N39       1.0  0.93290  0.85500  0.13736  1.0000 -0.1786304864
N   N40       1.0  0.06710  0.64500  0.63736  1.0000 -0.1786304864
N   N41       1.0  0.39510  0.18990  0.67403  1.0000 -0.1874315549
N   N42       1.0  0.60490  0.31010  0.17403  1.0000 -0.1874315549
N   N43       1.0  0.89510  0.81010  0.17403  1.0000 -0.1874315549
N   N44       1.0  0.10490  0.68990  0.67403  1.0000 -0.1874315549
N   N45       1.0  0.12600  0.88350  0.69080  1.0000 -0.2206832688
N   N46       1.0  0.87400  0.61650  0.19080  1.0000 -0.2206832688
N   N47       1.0  0.62600  0.11650  0.19080  1.0000 -0.2206832688
N   N48       1.0  0.37400  0.38350  0.69080  1.0000 -0.2206832688
O   O1        1.0  0.99010  0.16040  0.96760  1.0000 -0.5064487341
O   O2        1.0  0.00990  0.33960  0.46760  1.0000 -0.5064487341
O   O3        1.0  0.49010  0.83960  0.46760  1.0000 -0.504524875
O   O4        1.0  0.50990  0.66040  0.96760  1.0000 -0.5064487341
O   O5        1.0  0.84940  0.20450  0.97090  1.0000 -0.5768323
O   O6        1.0  0.15060  0.29550  0.47090  1.0000 -0.5768323
O   O7        1.0  0.34940  0.79550  0.47090  1.0000 -0.5768323
O   O8        1.0  0.65060  0.70450  0.97090  1.0000 -0.5768323
O   O9        1.0  0.00020  0.16570  0.22265  1.0000 -0.5209661606
O   O10       1.0  0.99980  0.33430  0.72265  1.0000 -0.5209661606
O   O11       1.0  0.50020  0.83430  0.72265  1.0000 -0.5209661606
O   O12       1.0  0.49980  0.66570  0.22265  1.0000 -0.5209661606
O   O13       1.0  0.89420  0.25490  0.22056  1.0000 -0.5209661606
O   O14       1.0  0.10580  0.24510  0.72056  1.0000 -0.5209661606
O   O15       1.0  0.39420  0.74510  0.72056  1.0000 -0.5209661606
O   O16       1.0  0.60580  0.75490  0.22056  1.0000 -0.5209661606
O   O17       1.0  0.50990  0.16040  0.53240  1.0000 -0.5064487341
O   O18       1.0  0.49010  0.33960  0.03240  1.0000 -0.504524875
O   O19       1.0  0.00990  0.83960  0.03240  1.0000 -0.5064487341
O   O20       1.0  0.99010  0.66040  0.53240  1.0000 -0.5064487341
O   O21       1.0  0.65060  0.20450  0.52910  1.0000 -0.5768323
O   O22       1.0  0.34940  0.29550  0.02910  1.0000 -0.574924219
O   O23       1.0  0.15060  0.79550  0.02910  1.0000 -0.5768323
O   O24       1.0  0.84940  0.70450  0.52910  1.0000 -0.5768323
O   O25       1.0  0.49980  0.16570  0.27735  1.0000 -0.5209661606
O   O26       1.0  0.50020  0.33430  0.77735  1.0000 -0.5209661606
O   O27       1.0  0.99980  0.83430  0.77735  1.0000 -0.5209661606
O   O28       1.0  0.00020  0.66570  0.27735  1.0000 -0.5209661606
O   O29       1.0  0.60580  0.25490  0.27944  1.0000 -0.5209661606
O   O30       1.0  0.39420  0.24510  0.77944  1.0000 -0.5209661606
O   O31       1.0  0.10580  0.74510  0.77944  1.0000 -0.5209661606
O   O32       1.0  0.89420  0.75490  0.27944  1.0000 -0.5209661606
