# DDEC6 charges by PACMAN v1.1 (https://github.com/mtap-research/PACMAN-charge/)
data_c7ta11208d2_1_ion_pacman
_symmetry_space_group_name_H-M   'P 1'
_cell_length_a   14.90010000
_cell_length_b   19.38370000
_cell_length_c   19.59350000
_cell_angle_alpha   90.00000000
_cell_angle_beta   90.00000000
_cell_angle_gamma   90.00000000
_symmetry_Int_Tables_number   1
_chemical_formula_structural   In2H33C32S4N3O17
_chemical_formula_sum   'In8 H132.0 C128 S16 N12 O68'
_cell_volume   5658.97641611
_cell_formula_units_Z   4
loop_
 _symmetry_equiv_pos_site_id
 _symmetry_equiv_pos_as_xyz
  1  'x, y, z'
loop_
 _atom_site_type_symbol
 _atom_site_label
 _atom_site_symmetry_multiplicity
 _atom_site_fract_x
 _atom_site_fract_y
 _atom_site_fract_z
 _atom_site_occupancy
 _atom_site_charge
In  In1  1  0.87519000  0.04785000  0.70985000  1.0 1.2944276773
In  In2  1  0.12481000  0.54785000  0.79015000  1.0 1.2956411087
In  In3  1  0.37519000  0.54785000  0.29015000  1.0 1.2944276773
In  In4  1  0.62481000  0.04785000  0.20985000  1.0 1.2944276773
In  In5  1  0.62481000  0.45215000  0.70985000  1.0 1.2944276773
In  In6  1  0.37519000  0.95215000  0.79015000  1.0 1.2956411087
In  In7  1  0.12481000  0.95215000  0.29015000  1.0 1.2956411087
In  In8  1  0.87519000  0.45215000  0.20985000  1.0 1.2944276773
H  H1  1  0.12928000  0.91177000  0.78805000  1.0 0.1742879816
H  H2  1  0.87072000  0.41177000  0.71195000  1.0 0.1742879816
H  H3  1  0.62928000  0.41177000  0.21195000  1.0 0.1742879816
H  H4  1  0.37072000  0.91177000  0.28805000  1.0 0.1742879816
H  H5  1  0.18824000  0.79477000  0.80921000  1.0 0.2390588236
H  H6  1  0.81176000  0.29477000  0.69079000  1.0 0.2390588236
H  H7  1  0.68824000  0.29477000  0.19079000  1.0 0.2390588236
H  H8  1  0.31176000  0.79477000  0.30921000  1.0 0.2390588236
H  H9  1  0.95845000  0.03219000  0.46465000  1.0 0.1446551264
H  H10  1  0.04155000  0.53219000  0.03535000  1.0 0.1446551264
H  H11  1  0.45845000  0.53219000  0.53535000  1.0 0.1446551264
H  H12  1  0.54155000  0.03219000  0.96465000  1.0 0.1446551264
H  H13  1  0.89485000  0.03124000  0.34885000  1.0 0.155774019
H  H14  1  0.10515000  0.53124000  0.15115000  1.0 0.155774019
H  H15  1  0.39485000  0.53124000  0.65115000  1.0 0.155774019
H  H16  1  0.60515000  0.03124000  0.84885000  1.0 0.155774019
H  H17  1  0.37072000  0.58823000  0.78805000  1.0 0.1742879816
H  H18  1  0.62928000  0.08823000  0.71195000  1.0 0.1742879816
H  H19  1  0.87072000  0.08823000  0.21195000  1.0 0.1742879816
H  H20  1  0.12928000  0.58823000  0.28805000  1.0 0.1742879816
H  H21  1  0.31176000  0.70523000  0.80921000  1.0 0.2390588236
H  H22  1  0.68824000  0.20523000  0.69079000  1.0 0.2390588236
H  H23  1  0.81176000  0.20523000  0.19079000  1.0 0.2390588236
H  H24  1  0.18824000  0.70523000  0.30921000  1.0 0.2390588236
H  H25  1  0.54155000  0.46781000  0.46465000  1.0 0.1446551264
H  H26  1  0.45845000  0.96781000  0.03535000  1.0 0.1446551264
H  H27  1  0.04155000  0.96781000  0.53535000  1.0 0.1446551264
H  H28  1  0.95845000  0.46781000  0.96465000  1.0 0.1446551264
H  H29  1  0.60515000  0.46876000  0.34885000  1.0 0.155774019
H  H30  1  0.39485000  0.96876000  0.15115000  1.0 0.155774019
H  H31  1  0.10515000  0.96876000  0.65115000  1.0 0.155774019
H  H32  1  0.89485000  0.46876000  0.84885000  1.0 0.155774019
H  H177  1  0.98081000  0.91585000  0.17299000  1.0 0.2516362772
H  H178  1  0.94690000  0.87168000  0.11755000  1.0 0.2264267646
H  H179  1  0.99872000  0.97238000  0.07165000  1.0 0.0936277353
H  H180  1  0.92983000  0.01344000  0.11936000  1.0 0.1093135842
H  H181  1  0.89298000  0.96544000  0.05910000  1.0 0.0936277353
H  H182  1  0.84966000  0.86721000  0.20637000  1.0 0.0995715161
H  H183  1  0.80238000  0.90124000  0.14121000  1.0 0.119946596
H  H184  1  0.83924000  0.94924000  0.20146000  1.0 0.119946596
H  H185  1  0.51919000  0.58415000  0.17299000  1.0 0.2516362772
H  H186  1  0.55310000  0.62832000  0.11755000  1.0 0.2264267646
H  H187  1  0.50128000  0.52762000  0.07165000  1.0 0.0936277353
H  H188  1  0.57017000  0.48656000  0.11936000  1.0 0.1093135842
H  H189  1  0.60702000  0.53456000  0.05910000  1.0 0.0936277353
H  H190  1  0.65034000  0.63279000  0.20637000  1.0 0.0995715161
H  H191  1  0.69762000  0.59876000  0.14121000  1.0 0.119946596
H  H192  1  0.66076000  0.55076000  0.20146000  1.0 0.119946596
H  H193  1  0.01919000  0.41585000  0.32701000  1.0 0.2516362772
H  H194  1  0.05310000  0.37168000  0.38245000  1.0 0.2264267646
H  H195  1  0.00128000  0.47238000  0.42835000  1.0 0.0936277353
H  H196  1  0.07017000  0.51344000  0.38064000  1.0 0.1093135842
H  H197  1  0.10702000  0.46544000  0.44090000  1.0 0.0936277353
H  H198  1  0.15034000  0.36721000  0.29363000  1.0 0.0995715161
H  H199  1  0.19762000  0.40124000  0.35879000  1.0 0.119946596
H  H200  1  0.16076000  0.44924000  0.29854000  1.0 0.119946596
H  H201  1  0.48081000  0.08415000  0.32701000  1.0 0.2516362772
H  H202  1  0.44690000  0.12832000  0.38245000  1.0 0.2264267646
H  H203  1  0.49872000  0.02762000  0.42835000  1.0 0.0936277353
H  H204  1  0.42983000  0.98656000  0.38064000  1.0 0.1093135842
H  H205  1  0.39298000  0.03456000  0.44090000  1.0 0.0936277353
H  H206  1  0.34966000  0.13279000  0.29363000  1.0 0.0995715161
H  H207  1  0.30238000  0.09876000  0.35879000  1.0 0.119946596
H  H208  1  0.33924000  0.05076000  0.29854000  1.0 0.119946596
H  H209  1  0.01919000  0.08415000  0.82701000  1.0 0.2516362772
H  H210  1  0.05310000  0.12832000  0.88245000  1.0 0.2264267646
H  H211  1  0.00128000  0.02762000  0.92835000  1.0 0.0936277353
H  H212  1  0.07017000  0.98656000  0.88064000  1.0 0.1093135842
H  H213  1  0.10702000  0.03456000  0.94090000  1.0 0.0936277353
H  H214  1  0.15034000  0.13279000  0.79363000  1.0 0.0995715161
H  H215  1  0.19762000  0.09876000  0.85879000  1.0 0.119946596
H  H216  1  0.16076000  0.05076000  0.79854000  1.0 0.119946596
H  H217  1  0.48081000  0.41585000  0.82701000  1.0 0.2516362772
H  H218  1  0.44690000  0.37168000  0.88245000  1.0 0.2264267646
H  H219  1  0.49872000  0.47238000  0.92835000  1.0 0.0936277353
H  H220  1  0.42983000  0.51344000  0.88064000  1.0 0.1093135842
H  H221  1  0.39298000  0.46544000  0.94090000  1.0 0.0936277353
H  H222  1  0.34966000  0.36721000  0.79363000  1.0 0.0995715161
H  H223  1  0.30238000  0.40124000  0.85879000  1.0 0.119946596
H  H224  1  0.33924000  0.44924000  0.79854000  1.0 0.119946596
H  H225  1  0.98081000  0.58415000  0.67299000  1.0 0.2516362772
H  H226  1  0.94690000  0.62832000  0.61755000  1.0 0.2264267646
H  H227  1  0.99872000  0.52762000  0.57165000  1.0 0.0936277353
H  H228  1  0.92983000  0.48656000  0.61936000  1.0 0.1093135842
H  H229  1  0.89298000  0.53456000  0.55910000  1.0 0.0936277353
H  H230  1  0.84966000  0.63279000  0.70637000  1.0 0.0995715161
H  H231  1  0.80238000  0.59876000  0.64121000  1.0 0.119946596
H  H232  1  0.83924000  0.55076000  0.70146000  1.0 0.119946596
H  H233  1  0.51919000  0.91585000  0.67299000  1.0 0.2516362772
H  H234  1  0.55310000  0.87168000  0.61755000  1.0 0.2264267646
H  H235  1  0.50128000  0.97238000  0.57165000  1.0 0.0936277353
H  H236  1  0.57017000  0.01344000  0.61936000  1.0 0.1093135842
H  H237  1  0.60702000  0.96544000  0.55910000  1.0 0.0936277353
H  H238  1  0.65034000  0.86721000  0.70637000  1.0 0.0995715161
H  H239  1  0.69762000  0.90124000  0.64121000  1.0 0.119946596
H  H240  1  0.66076000  0.94924000  0.70146000  1.0 0.119946596
H  H33  1  0.26370000  0.76658000  0.14688000  0.27 0.0403687921
H  H34  1  0.23630000  0.73342000  0.14688000  0.27 0.0403687921
H  H35  1  0.36813000  0.77662000  0.13057000  0.27 0.0403687921
H  H36  1  0.13187000  0.72338000  0.13057000  0.27 0.0403687921
H  H37  1  0.32691000  0.70063000  0.13669000  0.27 0.0520828642
H  H38  1  0.17309000  0.79937000  0.13669000  0.27 0.0520828642
H  H39  1  0.11515000  0.75015000  0.95827000  0.27 0.119946596
H  H40  1  0.38485000  0.74985000  0.95827000  0.27 0.119946596
H  H41  1  0.19565000  0.69578000  0.95283000  0.27 0.0403687921
H  H42  1  0.30435000  0.80422000  0.95283000  0.27 0.0403687921
H  H43  1  0.21261000  0.77517000  0.93450000  0.27 0.0554129623
H  H44  1  0.28739000  0.72483000  0.93450000  0.27 0.0554129623
H  H45  1  0.07304000  0.75559000  0.05776000  0.27 0.0779854934
H  H46  1  0.42696000  0.74441000  0.05776000  0.27 0.0779854934
H  H47  1  0.13603000  0.77384000  0.12140000  0.27 0.0520828642
H  H48  1  0.36397000  0.72616000  0.12140000  0.27 0.0520828642
H  H49  1  0.12945000  0.69602000  0.09460000  0.27 0.0779854934
H  H50  1  0.37055000  0.80398000  0.09460000  0.27 0.0779854934
H  H69  1  0.73630000  0.26658000  0.35312000  0.27 0.0403687921
H  H70  1  0.76370000  0.23342000  0.35312000  0.27 0.0403687921
H  H71  1  0.63187000  0.27662000  0.36943000  0.27 0.0403687921
H  H72  1  0.86813000  0.22338000  0.36943000  0.27 0.0403687921
H  H73  1  0.67309000  0.20063000  0.36331000  0.27 0.0520828642
H  H74  1  0.82691000  0.29937000  0.36331000  0.27 0.0520828642
H  H75  1  0.88485000  0.25015000  0.54173000  0.27 0.119946596
H  H76  1  0.61515000  0.24985000  0.54173000  0.27 0.119946596
H  H77  1  0.80435000  0.19578000  0.54717000  0.27 0.0403687921
H  H78  1  0.69565000  0.30422000  0.54717000  0.27 0.0403687921
H  H79  1  0.78739000  0.27517000  0.56550000  0.27 0.0554129623
H  H80  1  0.71261000  0.22483000  0.56550000  0.27 0.0554129623
H  H81  1  0.92696000  0.25559000  0.44224000  0.27 0.0779854934
H  H82  1  0.57304000  0.24441000  0.44224000  0.27 0.0779854934
H  H83  1  0.86397000  0.27384000  0.37860000  0.27 0.0520828642
H  H84  1  0.63603000  0.22616000  0.37860000  0.27 0.0520828642
H  H85  1  0.87055000  0.19602000  0.40540000  0.27 0.0779854934
H  H86  1  0.62945000  0.30398000  0.40540000  0.27 0.0779854934
H  H105  1  0.73630000  0.23342000  0.85312000  0.27 0.0403687921
H  H106  1  0.76370000  0.26658000  0.85312000  0.27 0.0403687921
H  H107  1  0.63187000  0.22338000  0.86943000  0.27 0.0403687921
H  H108  1  0.86813000  0.27662000  0.86943000  0.27 0.0403687921
H  H109  1  0.67309000  0.29937000  0.86331000  0.27 0.0520828642
H  H110  1  0.82691000  0.20063000  0.86331000  0.27 0.0520828642
H  H111  1  0.88485000  0.24985000  0.04173000  0.27 0.119946596
H  H112  1  0.61515000  0.25015000  0.04173000  0.27 0.119946596
H  H113  1  0.80435000  0.30422000  0.04717000  0.27 0.0403687921
H  H114  1  0.69565000  0.19578000  0.04717000  0.27 0.0403687921
H  H115  1  0.78739000  0.22483000  0.06550000  0.27 0.0554129623
H  H116  1  0.71261000  0.27517000  0.06550000  0.27 0.0554129623
H  H117  1  0.92696000  0.24441000  0.94224000  0.27 0.0779854934
H  H118  1  0.57304000  0.25559000  0.94224000  0.27 0.0779854934
H  H119  1  0.86397000  0.22616000  0.87860000  0.27 0.0520828642
H  H120  1  0.63603000  0.27384000  0.87860000  0.27 0.0520828642
H  H121  1  0.87055000  0.30398000  0.90540000  0.27 0.0779854934
H  H122  1  0.62945000  0.19602000  0.90540000  0.27 0.0779854934
H  H141  1  0.26370000  0.73342000  0.64688000  0.27 0.0403687921
H  H142  1  0.23630000  0.76658000  0.64688000  0.27 0.0403687921
H  H143  1  0.36813000  0.72338000  0.63057000  0.27 0.0403687921
H  H144  1  0.13187000  0.77662000  0.63057000  0.27 0.0403687921
H  H145  1  0.32691000  0.79937000  0.63669000  0.27 0.0520828642
H  H146  1  0.17309000  0.70063000  0.63669000  0.27 0.0520828642
H  H147  1  0.11515000  0.74985000  0.45827000  0.27 0.119946596
H  H148  1  0.38485000  0.75015000  0.45827000  0.27 0.119946596
H  H149  1  0.19565000  0.80422000  0.45283000  0.27 0.0403687921
H  H150  1  0.30435000  0.69578000  0.45283000  0.27 0.0403687921
H  H151  1  0.21261000  0.72483000  0.43450000  0.27 0.0554129623
H  H152  1  0.28739000  0.77517000  0.43450000  0.27 0.0554129623
H  H153  1  0.07304000  0.74441000  0.55776000  0.27 0.0779854934
H  H154  1  0.42696000  0.75559000  0.55776000  0.27 0.0779854934
H  H155  1  0.13603000  0.72616000  0.62140000  0.27 0.0520828642
H  H156  1  0.36397000  0.77384000  0.62140000  0.27 0.0520828642
H  H157  1  0.12945000  0.80398000  0.59460000  0.27 0.0779854934
H  H158  1  0.37055000  0.69602000  0.59460000  0.27 0.0779854934
H  H51  1  0.17095000  0.75659000  0.95835000  0.23 0.0779854934
H  H52  1  0.32905000  0.74341000  0.95835000  0.23 0.0779854934
H  H53  1  0.25793000  0.72408000  0.92282000  0.23 0.0319563758
H  H54  1  0.24207000  0.77592000  0.92282000  0.23 0.0319563758
H  H55  1  0.24885000  0.80598000  0.93052000  0.23 0.0520828642
H  H56  1  0.25115000  0.69402000  0.93052000  0.23 0.0520828642
H  H57  1  0.10892000  0.75607000  0.11651000  0.23 0.0403687921
H  H58  1  0.39108000  0.74393000  0.11651000  0.23 0.0403687921
H  H59  1  0.10977000  0.75215000  0.03493000  0.23 0.0995715161
H  H60  1  0.39023000  0.74785000  0.03493000  0.23 0.0995715161
H  H61  1  0.14491000  0.82011000  0.07283000  0.23 0.0695132718
H  H62  1  0.35509000  0.67989000  0.07283000  0.23 0.0695132718
H  H63  1  0.23849000  0.74480000  0.17902000  0.23 0.0695132718
H  H64  1  0.26151000  0.75520000  0.17902000  0.23 0.0695132718
H  H65  1  0.29093000  0.80632000  0.14190000  0.23 0.0520828642
H  H66  1  0.20907000  0.69368000  0.14190000  0.23 0.0520828642
H  H67  1  0.33258000  0.73022000  0.14236000  0.23 0.0319563758
H  H68  1  0.16742000  0.76978000  0.14236000  0.23 0.0319563758
H  H87  1  0.82905000  0.25659000  0.54165000  0.23 0.0779854934
H  H88  1  0.67095000  0.24341000  0.54165000  0.23 0.0779854934
H  H89  1  0.74207000  0.22408000  0.57718000  0.23 0.0319563758
H  H90  1  0.75793000  0.27592000  0.57718000  0.23 0.0319563758
H  H91  1  0.75115000  0.30598000  0.56948000  0.23 0.0520828642
H  H92  1  0.74885000  0.19402000  0.56948000  0.23 0.0520828642
H  H93  1  0.89108000  0.25607000  0.38349000  0.23 0.0403687921
H  H94  1  0.60892000  0.24393000  0.38349000  0.23 0.0403687921
H  H95  1  0.89023000  0.25215000  0.46507000  0.23 0.0995715161
H  H96  1  0.60977000  0.24785000  0.46507000  0.23 0.0995715161
H  H97  1  0.85509000  0.32011000  0.42717000  0.23 0.0695132718
H  H98  1  0.64491000  0.17989000  0.42717000  0.23 0.0695132718
H  H99  1  0.76151000  0.24480000  0.32098000  0.23 0.0695132718
H  H100  1  0.73849000  0.25520000  0.32098000  0.23 0.0695132718
H  H101  1  0.70907000  0.30632000  0.35810000  0.23 0.0520828642
H  H102  1  0.79093000  0.19368000  0.35810000  0.23 0.0520828642
H  H103  1  0.66742000  0.23022000  0.35764000  0.23 0.0319563758
H  H104  1  0.83258000  0.26978000  0.35764000  0.23 0.0319563758
H  H123  1  0.82905000  0.24341000  0.04165000  0.23 0.0779854934
H  H124  1  0.67095000  0.25659000  0.04165000  0.23 0.0779854934
H  H125  1  0.74207000  0.27592000  0.07718000  0.23 0.0319563758
H  H126  1  0.75793000  0.22408000  0.07718000  0.23 0.0319563758
H  H127  1  0.75115000  0.19402000  0.06948000  0.23 0.0520828642
H  H128  1  0.74885000  0.30598000  0.06948000  0.23 0.0520828642
H  H129  1  0.89108000  0.24393000  0.88349000  0.23 0.0403687921
H  H130  1  0.60892000  0.25607000  0.88349000  0.23 0.0403687921
H  H131  1  0.89023000  0.24785000  0.96507000  0.23 0.0995715161
H  H132  1  0.60977000  0.25215000  0.96507000  0.23 0.0995715161
H  H133  1  0.85509000  0.17989000  0.92717000  0.23 0.0695132718
H  H134  1  0.64491000  0.32011000  0.92717000  0.23 0.0695132718
H  H135  1  0.76151000  0.25520000  0.82098000  0.23 0.0695132718
H  H136  1  0.73849000  0.24480000  0.82098000  0.23 0.0695132718
H  H137  1  0.70907000  0.19368000  0.85810000  0.23 0.0520828642
H  H138  1  0.79093000  0.30632000  0.85810000  0.23 0.0520828642
H  H139  1  0.66742000  0.26978000  0.85764000  0.23 0.0319563758
H  H140  1  0.83258000  0.23022000  0.85764000  0.23 0.0319563758
H  H159  1  0.17095000  0.74341000  0.45835000  0.23 0.0779854934
H  H160  1  0.32905000  0.75659000  0.45835000  0.23 0.0779854934
H  H161  1  0.25793000  0.77592000  0.42282000  0.23 0.0319563758
H  H162  1  0.24207000  0.72408000  0.42282000  0.23 0.0319563758
H  H163  1  0.24885000  0.69402000  0.43052000  0.23 0.0520828642
H  H164  1  0.25115000  0.80598000  0.43052000  0.23 0.0520828642
H  H165  1  0.10892000  0.74393000  0.61651000  0.23 0.0403687921
H  H166  1  0.39108000  0.75607000  0.61651000  0.23 0.0403687921
H  H167  1  0.10977000  0.74785000  0.53493000  0.23 0.0995715161
H  H168  1  0.39023000  0.75215000  0.53493000  0.23 0.0995715161
H  H169  1  0.14491000  0.67989000  0.57283000  0.23 0.0695132718
H  H170  1  0.35509000  0.82011000  0.57283000  0.23 0.0695132718
H  H171  1  0.23849000  0.75520000  0.67902000  0.23 0.0695132718
H  H172  1  0.26151000  0.74480000  0.67902000  0.23 0.0695132718
H  H173  1  0.29093000  0.69368000  0.64190000  0.23 0.0520828642
H  H174  1  0.20907000  0.80632000  0.64190000  0.23 0.0520828642
H  H175  1  0.33258000  0.76978000  0.64236000  0.23 0.0319563758
H  H176  1  0.16742000  0.73022000  0.64236000  0.23 0.0319563758
C  C1  1  0.95800000  0.93110000  0.73600000  1.0 0.5235743813
C  C2  1  0.04200000  0.43110000  0.76400000  1.0 0.5235743813
C  C3  1  0.45800000  0.43110000  0.26400000  1.0 0.5235743813
C  C4  1  0.54200000  0.93110000  0.23600000  1.0 0.5235743813
C  C5  1  0.01120000  0.87100000  0.75480000  1.0 -0.0693248261
C  C6  1  0.98880000  0.37100000  0.74520000  1.0 -0.0693248261
C  C7  1  0.51120000  0.37100000  0.24520000  1.0 -0.0693248261
C  C8  1  0.48880000  0.87100000  0.25480000  1.0 -0.0693248261
C  C9  1  0.09590000  0.87090000  0.77980000  1.0 -0.1478518813
C  C10  1  0.90410000  0.37090000  0.72020000  1.0 -0.1478518813
C  C11  1  0.59590000  0.37090000  0.22020000  1.0 -0.1478518813
C  C12  1  0.40410000  0.87090000  0.27980000  1.0 -0.1478518813
C  C13  1  0.12970000  0.80400000  0.79220000  1.0 -0.1709919514
C  C14  1  0.87030000  0.30400000  0.70780000  1.0 -0.1709919514
C  C15  1  0.62970000  0.30400000  0.20780000  1.0 -0.1709919514
C  C16  1  0.37030000  0.80400000  0.29220000  1.0 -0.1709919514
C  C17  1  0.06830000  0.75460000  0.77700000  1.0 -0.1709919514
C  C18  1  0.93170000  0.25460000  0.72300000  1.0 -0.1709919514
C  C19  1  0.56830000  0.25460000  0.22300000  1.0 -0.1709919514
C  C20  1  0.43170000  0.75460000  0.27700000  1.0 -0.1709919514
C  C21  1  0.08190000  0.67940000  0.78200000  1.0 0.3721854308
C  C22  1  0.91810000  0.17940000  0.71800000  1.0 0.3721854308
C  C23  1  0.58190000  0.17940000  0.21800000  1.0 0.3721854308
C  C24  1  0.41810000  0.67940000  0.28200000  1.0 0.3721854308
C  C25  1  0.84490000  0.04190000  0.57970000  1.0 0.4550929808
C  C26  1  0.15510000  0.54190000  0.92030000  1.0 0.4550929808
C  C27  1  0.34490000  0.54190000  0.42030000  1.0 0.4550929808
C  C28  1  0.65510000  0.04190000  0.07970000  1.0 0.4550929808
C  C29  1  0.83280000  0.04290000  0.50450000  1.0 -0.087280873
C  C30  1  0.16720000  0.54290000  0.99550000  1.0 -0.087280873
C  C31  1  0.33280000  0.54290000  0.49550000  1.0 -0.087280873
C  C32  1  0.66720000  0.04290000  0.00450000  1.0 -0.087280873
C  C33  1  0.89610000  0.03630000  0.45530000  1.0 -0.1213768088
C  C34  1  0.10390000  0.53630000  0.04470000  1.0 -0.1213768088
C  C35  1  0.39610000  0.53630000  0.54470000  1.0 -0.1213768088
C  C36  1  0.60390000  0.03630000  0.95530000  1.0 -0.1213768088
C  C37  1  0.86000000  0.03620000  0.38910000  1.0 -0.1213768088
C  C38  1  0.14000000  0.53620000  0.11090000  1.0 -0.1213768088
C  C39  1  0.36000000  0.53620000  0.61090000  1.0 -0.1213768088
C  C40  1  0.64000000  0.03620000  0.88910000  1.0 -0.1213768088
C  C41  1  0.76960000  0.04410000  0.38930000  1.0 -0.0989530193
C  C42  1  0.23040000  0.54410000  0.11070000  1.0 -0.1054688625
C  C43  1  0.26960000  0.54410000  0.61070000  1.0 -0.1054688625
C  C44  1  0.73040000  0.04410000  0.88930000  1.0 -0.0989530193
C  C45  1  0.71030000  0.04860000  0.32980000  1.0 0.4016367786
C  C46  1  0.28970000  0.54860000  0.17020000  1.0 0.4016367786
C  C47  1  0.21030000  0.54860000  0.67020000  1.0 0.4016367786
C  C48  1  0.78970000  0.04860000  0.82980000  1.0 0.4016367786
C  C49  1  0.54200000  0.56890000  0.73600000  1.0 0.5235743813
C  C50  1  0.45800000  0.06890000  0.76400000  1.0 0.5235743813
C  C51  1  0.04200000  0.06890000  0.26400000  1.0 0.5235743813
C  C52  1  0.95800000  0.56890000  0.23600000  1.0 0.5235743813
C  C53  1  0.48880000  0.62900000  0.75480000  1.0 -0.0693248261
C  C54  1  0.51120000  0.12900000  0.74520000  1.0 -0.0693248261
C  C55  1  0.98880000  0.12900000  0.24520000  1.0 -0.0693248261
C  C56  1  0.01120000  0.62900000  0.25480000  1.0 -0.0693248261
C  C57  1  0.40410000  0.62910000  0.77980000  1.0 -0.1478518813
C  C58  1  0.59590000  0.12910000  0.72020000  1.0 -0.1478518813
C  C59  1  0.90410000  0.12910000  0.22020000  1.0 -0.1478518813
C  C60  1  0.09590000  0.62910000  0.27980000  1.0 -0.1478518813
C  C61  1  0.37030000  0.69600000  0.79220000  1.0 -0.1709919514
C  C62  1  0.62970000  0.19600000  0.70780000  1.0 -0.1709919514
C  C63  1  0.87030000  0.19600000  0.20780000  1.0 -0.1709919514
C  C64  1  0.12970000  0.69600000  0.29220000  1.0 -0.1709919514
C  C65  1  0.43170000  0.74540000  0.77700000  1.0 -0.1709919514
C  C66  1  0.56830000  0.24540000  0.72300000  1.0 -0.1709919514
C  C67  1  0.93170000  0.24540000  0.22300000  1.0 -0.1709919514
C  C68  1  0.06830000  0.74540000  0.27700000  1.0 -0.1709919514
C  C69  1  0.41810000  0.82060000  0.78200000  1.0 0.3721854308
C  C70  1  0.58190000  0.32060000  0.71800000  1.0 0.3721854308
C  C71  1  0.91810000  0.32060000  0.21800000  1.0 0.3721854308
C  C72  1  0.08190000  0.82060000  0.28200000  1.0 0.3721854308
C  C73  1  0.65510000  0.45810000  0.57970000  1.0 0.4550929808
C  C74  1  0.34490000  0.95810000  0.92030000  1.0 0.4550929808
C  C75  1  0.15510000  0.95810000  0.42030000  1.0 0.4550929808
C  C76  1  0.84490000  0.45810000  0.07970000  1.0 0.4550929808
C  C77  1  0.66720000  0.45710000  0.50450000  1.0 -0.087280873
C  C78  1  0.33280000  0.95710000  0.99550000  1.0 -0.087280873
C  C79  1  0.16720000  0.95710000  0.49550000  1.0 -0.087280873
C  C80  1  0.83280000  0.45710000  0.00450000  1.0 -0.087280873
C  C81  1  0.60390000  0.46370000  0.45530000  1.0 -0.1213768088
C  C82  1  0.39610000  0.96370000  0.04470000  1.0 -0.1213768088
C  C83  1  0.10390000  0.96370000  0.54470000  1.0 -0.1213768088
C  C84  1  0.89610000  0.46370000  0.95530000  1.0 -0.1213768088
C  C85  1  0.64000000  0.46380000  0.38910000  1.0 -0.1213768088
C  C86  1  0.36000000  0.96380000  0.11090000  1.0 -0.1213768088
C  C87  1  0.14000000  0.96380000  0.61090000  1.0 -0.1213768088
C  C88  1  0.86000000  0.46380000  0.88910000  1.0 -0.1213768088
C  C89  1  0.73040000  0.45590000  0.38930000  1.0 -0.0989530193
C  C90  1  0.26960000  0.95590000  0.11070000  1.0 -0.1054688625
C  C91  1  0.23040000  0.95590000  0.61070000  1.0 -0.1054688625
C  C92  1  0.76960000  0.45590000  0.88930000  1.0 -0.0989530193
C  C93  1  0.78970000  0.45140000  0.32980000  1.0 0.4016367786
C  C94  1  0.21030000  0.95140000  0.17020000  1.0 0.4016367786
C  C95  1  0.28970000  0.95140000  0.67020000  1.0 0.4016367786
C  C96  1  0.71030000  0.45140000  0.82980000  1.0 0.4016367786
C  C161  1  0.93980000  0.97060000  0.09380000  1.0 -0.3333623267
C  C162  1  0.84990000  0.90690000  0.17540000  1.0 -0.27538018
C  C163  1  0.56020000  0.52940000  0.09380000  1.0 -0.3333623267
C  C164  1  0.65010000  0.59310000  0.17540000  1.0 -0.27538018
C  C165  1  0.06020000  0.47060000  0.40620000  1.0 -0.3333623267
C  C166  1  0.15010000  0.40690000  0.32460000  1.0 -0.27538018
C  C167  1  0.43980000  0.02940000  0.40620000  1.0 -0.3333623267
C  C168  1  0.34990000  0.09310000  0.32460000  1.0 -0.27538018
C  C169  1  0.06020000  0.02940000  0.90620000  1.0 -0.3333623267
C  C170  1  0.15010000  0.09310000  0.82460000  1.0 -0.27538018
C  C171  1  0.43980000  0.47060000  0.90620000  1.0 -0.3333623267
C  C172  1  0.34990000  0.40690000  0.82460000  1.0 -0.27538018
C  C173  1  0.93980000  0.52940000  0.59380000  1.0 -0.3333623267
C  C174  1  0.84990000  0.59310000  0.67540000  1.0 -0.27538018
C  C175  1  0.56020000  0.97060000  0.59380000  1.0 -0.3333623267
C  C176  1  0.65010000  0.90690000  0.67540000  1.0 -0.27538018
C  C97  1  0.28200000  0.75800000  0.02050000  0.23 0.0520828642
C  C98  1  0.21800000  0.74200000  0.02050000  0.23 0.0520828642
C  C99  1  0.23600000  0.76100000  0.95200000  0.23 -0.1213768088
C  C100  1  0.26400000  0.73900000  0.95200000  0.23 -0.1213768088
C  C101  1  0.14100000  0.77000000  0.07500000  0.23 -0.0333257017
C  C102  1  0.35900000  0.73000000  0.07500000  0.23 -0.0333257017
C  C103  1  0.27700000  0.75700000  0.14020000  0.23 -0.0989530193
C  C104  1  0.22300000  0.74300000  0.14020000  0.23 -0.0989530193
C  C113  1  0.71800000  0.25800000  0.47950000  0.23 0.0520828642
C  C114  1  0.78200000  0.24200000  0.47950000  0.23 0.0520828642
C  C115  1  0.76400000  0.26100000  0.54800000  0.23 -0.1213768088
C  C116  1  0.73600000  0.23900000  0.54800000  0.23 -0.1213768088
C  C117  1  0.85900000  0.27000000  0.42500000  0.23 -0.0333257017
C  C118  1  0.64100000  0.23000000  0.42500000  0.23 -0.0333257017
C  C119  1  0.72300000  0.25700000  0.35980000  0.23 -0.0989530193
C  C120  1  0.77700000  0.24300000  0.35980000  0.23 -0.0989530193
C  C129  1  0.71800000  0.24200000  0.97950000  0.23 0.0520828642
C  C130  1  0.78200000  0.25800000  0.97950000  0.23 0.0520828642
C  C131  1  0.76400000  0.23900000  0.04800000  0.23 -0.1213768088
C  C132  1  0.73600000  0.26100000  0.04800000  0.23 -0.1213768088
C  C133  1  0.85900000  0.23000000  0.92500000  0.23 -0.0333257017
C  C134  1  0.64100000  0.27000000  0.92500000  0.23 -0.0333257017
C  C135  1  0.72300000  0.24300000  0.85980000  0.23 -0.0989530193
C  C136  1  0.77700000  0.25700000  0.85980000  0.23 -0.0989530193
C  C145  1  0.28200000  0.74200000  0.52050000  0.23 0.0520828642
C  C146  1  0.21800000  0.75800000  0.52050000  0.23 0.0520828642
C  C147  1  0.23600000  0.73900000  0.45200000  0.23 -0.1213768088
C  C148  1  0.26400000  0.76100000  0.45200000  0.23 -0.1213768088
C  C149  1  0.14100000  0.73000000  0.57500000  0.23 -0.0333257017
C  C150  1  0.35900000  0.77000000  0.57500000  0.23 -0.0333257017
C  C151  1  0.27700000  0.74300000  0.64020000  0.23 -0.0989530193
C  C152  1  0.22300000  0.75700000  0.64020000  0.23 -0.0989530193
C  C105  1  0.29500000  0.74800000  0.04680000  0.27 0.0013763534
C  C106  1  0.20500000  0.75200000  0.04680000  0.27 0.0013763534
C  C107  1  0.31500000  0.74800000  0.12170000  0.27 -0.081413158
C  C108  1  0.18500000  0.75200000  0.12170000  0.27 -0.081413158
C  C109  1  0.18000000  0.74300000  0.96440000  0.27 -0.0127640995
C  C110  1  0.32000000  0.75700000  0.96440000  0.27 -0.0127640995
C  C111  1  0.13000000  0.74460000  0.08090000  0.27 -0.0499375013
C  C112  1  0.37000000  0.75540000  0.08090000  0.27 -0.0499375013
C  C121  1  0.70500000  0.24800000  0.45320000  0.27 0.0013763534
C  C122  1  0.79500000  0.25200000  0.45320000  0.27 0.0013763534
C  C123  1  0.68500000  0.24800000  0.37830000  0.27 -0.081413158
C  C124  1  0.81500000  0.25200000  0.37830000  0.27 -0.081413158
C  C125  1  0.82000000  0.24300000  0.53560000  0.27 -0.0127640995
C  C126  1  0.68000000  0.25700000  0.53560000  0.27 -0.0127640995
C  C127  1  0.87000000  0.24460000  0.41910000  0.27 -0.0499375013
C  C128  1  0.63000000  0.25540000  0.41910000  0.27 -0.0499375013
C  C137  1  0.70500000  0.25200000  0.95320000  0.27 0.0013763534
C  C138  1  0.79500000  0.24800000  0.95320000  0.27 0.0013763534
C  C139  1  0.68500000  0.25200000  0.87830000  0.27 -0.081413158
C  C140  1  0.81500000  0.24800000  0.87830000  0.27 -0.081413158
C  C141  1  0.82000000  0.25700000  0.03560000  0.27 -0.0127640995
C  C142  1  0.68000000  0.24300000  0.03560000  0.27 -0.0127640995
C  C143  1  0.87000000  0.25540000  0.91910000  0.27 -0.0499375013
C  C144  1  0.63000000  0.24460000  0.91910000  0.27 -0.0499375013
C  C153  1  0.29500000  0.75200000  0.54680000  0.27 0.0013763534
C  C154  1  0.20500000  0.74800000  0.54680000  0.27 0.0013763534
C  C155  1  0.31500000  0.75200000  0.62170000  0.27 -0.081413158
C  C156  1  0.18500000  0.74800000  0.62170000  0.27 -0.081413158
C  C157  1  0.18000000  0.75700000  0.46440000  0.27 -0.0127640995
C  C158  1  0.32000000  0.74300000  0.46440000  0.27 -0.0127640995
C  C159  1  0.13000000  0.75540000  0.58090000  0.27 -0.0499375013
C  C160  1  0.37000000  0.74460000  0.58090000  0.27 -0.0499375013
S  S1  1  0.96974000  0.78793000  0.74642000  1.0 0.119946596
S  S2  1  0.03026000  0.28793000  0.75358000  1.0 0.119946596
S  S3  1  0.46974000  0.28793000  0.25358000  1.0 0.119946596
S  S4  1  0.53026000  0.78793000  0.24642000  1.0 0.119946596
S  S5  1  0.72775000  0.05147000  0.47054000  1.0 -0.0027160188
S  S6  1  0.27225000  0.55147000  0.02946000  1.0 -0.0027160188
S  S7  1  0.22775000  0.55147000  0.52946000  1.0 -0.0027160188
S  S8  1  0.77225000  0.05147000  0.97054000  1.0 -0.0027160188
S  S9  1  0.53026000  0.71207000  0.74642000  1.0 0.119946596
S  S10  1  0.46974000  0.21207000  0.75358000  1.0 0.119946596
S  S11  1  0.03026000  0.21207000  0.25358000  1.0 0.119946596
S  S12  1  0.96974000  0.71207000  0.24642000  1.0 0.119946596
S  S13  1  0.77225000  0.44853000  0.47054000  1.0 -0.0027160188
S  S14  1  0.22775000  0.94853000  0.02946000  1.0 -0.0027160188
S  S15  1  0.27225000  0.94853000  0.52946000  1.0 -0.0027160188
S  S16  1  0.72775000  0.44853000  0.97054000  1.0 -0.0027160188
N  N17  1  0.93670000  0.91130000  0.14120000  1.0 -0.2146257058
N  N18  1  0.56330000  0.58870000  0.14120000  1.0 -0.2146257058
N  N19  1  0.06330000  0.41130000  0.35880000  1.0 -0.2146257058
N  N20  1  0.43670000  0.08870000  0.35880000  1.0 -0.2146257058
N  N21  1  0.06330000  0.08870000  0.85880000  1.0 -0.2146257058
N  N22  1  0.43670000  0.41130000  0.85880000  1.0 -0.2146257058
N  N23  1  0.93670000  0.58870000  0.64120000  1.0 -0.2146257058
N  N24  1  0.56330000  0.91130000  0.64120000  1.0 -0.2146257058
N  N1  1  0.23000000  0.74100000  0.07700000  0.23 0.0695132718
N  N2  1  0.27000000  0.75900000  0.07700000  0.23 0.0695132718
N  N5  1  0.77000000  0.24100000  0.42300000  0.23 0.0695132718
N  N6  1  0.73000000  0.25900000  0.42300000  0.23 0.0695132718
N  N9  1  0.77000000  0.25900000  0.92300000  0.23 0.0695132718
N  N10  1  0.73000000  0.24100000  0.92300000  0.23 0.0695132718
N  N13  1  0.23000000  0.75900000  0.57700000  0.23 0.0695132718
N  N14  1  0.27000000  0.74100000  0.57700000  0.23 0.0695132718
N  N3  1  0.20400000  0.75700000  0.03500000  0.27 -0.087280873
N  N4  1  0.29600000  0.74300000  0.03500000  0.27 -0.087280873
N  N7  1  0.79600000  0.25700000  0.46500000  0.27 -0.087280873
N  N8  1  0.70400000  0.24300000  0.46500000  0.27 -0.087280873
N  N11  1  0.79600000  0.24300000  0.96500000  0.27 -0.087280873
N  N12  1  0.70400000  0.25700000  0.96500000  0.27 -0.087280873
N  N15  1  0.20400000  0.74300000  0.53500000  0.27 -0.087280873
N  N16  1  0.29600000  0.75700000  0.53500000  0.27 -0.087280873
O  O1  1  0.88010000  0.92530000  0.71220000  1.0 -0.5188744447
O  O2  1  0.11990000  0.42530000  0.78780000  1.0 -0.5188744447
O  O3  1  0.38010000  0.42530000  0.28780000  1.0 -0.5188744447
O  O4  1  0.61990000  0.92530000  0.21220000  1.0 -0.5188744447
O  O5  1  0.99320000  0.99023000  0.74430000  1.0 -0.5188744447
O  O6  1  0.00680000  0.49023000  0.75570000  1.0 -0.5188744447
O  O7  1  0.49320000  0.49023000  0.25570000  1.0 -0.5188744447
O  O8  1  0.50680000  0.99023000  0.24430000  1.0 -0.5188744447
O  O9  1  0.01950000  0.63820000  0.76880000  1.0 -0.4484756186
O  O10  1  0.98050000  0.13820000  0.73120000  1.0 -0.4484756186
O  O11  1  0.51950000  0.13820000  0.23120000  1.0 -0.4484756186
O  O12  1  0.48050000  0.63820000  0.26880000  1.0 -0.4484756186
O  O13  1  0.15930000  0.65790000  0.79900000  1.0 -0.486918059
O  O14  1  0.84070000  0.15790000  0.70100000  1.0 -0.486918059
O  O15  1  0.65930000  0.15790000  0.20100000  1.0 -0.486918059
O  O16  1  0.34070000  0.65790000  0.29900000  1.0 -0.486918059
O  O17  1  0.77920000  0.03733000  0.61871000  1.0 -0.4693788576
O  O18  1  0.22080000  0.53733000  0.88129000  1.0 -0.4693788576
O  O19  1  0.27920000  0.53733000  0.38129000  1.0 -0.4693788576
O  O20  1  0.72080000  0.03733000  0.11871000  1.0 -0.4693788576
O  O21  1  0.92460000  0.04580000  0.60290000  1.0 -0.4598136625
O  O22  1  0.07540000  0.54580000  0.89710000  1.0 -0.4598136625
O  O23  1  0.42460000  0.54580000  0.39710000  1.0 -0.4598136625
O  O24  1  0.57540000  0.04580000  0.10290000  1.0 -0.4598136625
O  O25  1  0.63080000  0.06210000  0.33540000  1.0 -0.4693788576
O  O26  1  0.36920000  0.56210000  0.16460000  1.0 -0.4693788576
O  O27  1  0.13080000  0.56210000  0.66460000  1.0 -0.4693788576
O  O28  1  0.86920000  0.06210000  0.83540000  1.0 -0.4693788576
O  O29  1  0.74400000  0.03270000  0.27140000  1.0 -0.4422790191
O  O30  1  0.25600000  0.53270000  0.22860000  1.0 -0.4422790191
O  O31  1  0.24400000  0.53270000  0.72860000  1.0 -0.4422790191
O  O32  1  0.75600000  0.03270000  0.77140000  1.0 -0.4422790191
O  O33  1  0.61990000  0.57470000  0.71220000  1.0 -0.5188744447
O  O34  1  0.38010000  0.07470000  0.78780000  1.0 -0.5188744447
O  O35  1  0.11990000  0.07470000  0.28780000  1.0 -0.5188744447
O  O36  1  0.88010000  0.57470000  0.21220000  1.0 -0.5188744447
O  O37  1  0.50680000  0.50977000  0.74430000  1.0 -0.5188744447
O  O38  1  0.49320000  0.00977000  0.75570000  1.0 -0.5188744447
O  O39  1  0.00680000  0.00977000  0.25570000  1.0 -0.5188744447
O  O40  1  0.99320000  0.50977000  0.24430000  1.0 -0.5188744447
O  O41  1  0.48050000  0.86180000  0.76880000  1.0 -0.4484756186
O  O42  1  0.51950000  0.36180000  0.73120000  1.0 -0.4484756186
O  O43  1  0.98050000  0.36180000  0.23120000  1.0 -0.4484756186
O  O44  1  0.01950000  0.86180000  0.26880000  1.0 -0.4484756186
O  O45  1  0.34070000  0.84210000  0.79900000  1.0 -0.486918059
O  O46  1  0.65930000  0.34210000  0.70100000  1.0 -0.486918059
O  O47  1  0.84070000  0.34210000  0.20100000  1.0 -0.486918059
O  O48  1  0.15930000  0.84210000  0.29900000  1.0 -0.486918059
O  O49  1  0.72080000  0.46267000  0.61871000  1.0 -0.4693788576
O  O50  1  0.27920000  0.96267000  0.88129000  1.0 -0.4693788576
O  O51  1  0.22080000  0.96267000  0.38129000  1.0 -0.4693788576
O  O52  1  0.77920000  0.46267000  0.11871000  1.0 -0.4693788576
O  O53  1  0.57540000  0.45420000  0.60290000  1.0 -0.4598136625
O  O54  1  0.42460000  0.95420000  0.89710000  1.0 -0.4598136625
O  O55  1  0.07540000  0.95420000  0.39710000  1.0 -0.4598136625
O  O56  1  0.92460000  0.45420000  0.10290000  1.0 -0.4598136625
O  O57  1  0.86920000  0.43790000  0.33540000  1.0 -0.4693788576
O  O58  1  0.13080000  0.93790000  0.16460000  1.0 -0.4693788576
O  O59  1  0.36920000  0.93790000  0.66460000  1.0 -0.4693788576
O  O60  1  0.63080000  0.43790000  0.83540000  1.0 -0.4693788576
O  O61  1  0.75600000  0.46730000  0.27140000  1.0 -0.4422790191
O  O62  1  0.24400000  0.96730000  0.22860000  1.0 -0.4422790191
O  O63  1  0.25600000  0.96730000  0.72860000  1.0 -0.4422790191
O  O64  1  0.74400000  0.46730000  0.77140000  1.0 -0.4422790191
O  O65  1  0.36600000  0.76300000  0.02100000  0.23 -0.0499375013
O  O66  1  0.13400000  0.73700000  0.02100000  0.23 -0.0499375013
O  O69  1  0.63400000  0.26300000  0.47900000  0.23 -0.0499375013
O  O70  1  0.86600000  0.23700000  0.47900000  0.23 -0.0499375013
O  O73  1  0.63400000  0.23700000  0.97900000  0.23 -0.0499375013
O  O74  1  0.86600000  0.26300000  0.97900000  0.23 -0.0499375013
O  O77  1  0.36600000  0.73700000  0.52100000  0.23 -0.0499375013
O  O78  1  0.13400000  0.76300000  0.52100000  0.23 -0.0499375013
O  O67  1  0.35200000  0.72700000  0.00630000  0.27 -0.0333257017
O  O68  1  0.14800000  0.77300000  0.00630000  0.27 -0.0333257017
O  O71  1  0.64800000  0.22700000  0.49370000  0.27 -0.0333257017
O  O72  1  0.85200000  0.27300000  0.49370000  0.27 -0.0333257017
O  O75  1  0.64800000  0.27300000  0.99370000  0.27 -0.0333257017
O  O76  1  0.85200000  0.22700000  0.99370000  0.27 -0.0333257017
O  O79  1  0.35200000  0.77300000  0.50630000  0.27 -0.0333257017
O  O80  1  0.14800000  0.72700000  0.50630000  0.27 -0.0333257017
