# DDEC6 charges by PACMAN v1.1 (https://github.com/mtap-research/PACMAN-charge/)
data_cm6b02817_si_002_ASR_pacman
_symmetry_space_group_name_H-M   'P 1'
_cell_length_a   22.45700000
_cell_length_b   22.45700000
_cell_length_c   22.45700000
_cell_angle_alpha   90.00000000
_cell_angle_beta   90.00000000
_cell_angle_gamma   90.00000000
_symmetry_Int_Tables_number   1
_chemical_formula_structural   In24H72C192N24Cl7.92O120.08
_chemical_formula_sum   'In24 H72 C192 N24 Cl7.92 O120.08'
_cell_volume   11325.44347799
_cell_formula_units_Z   1
loop_
 _symmetry_equiv_pos_site_id
 _symmetry_equiv_pos_as_xyz
  1  'x, y, z'
loop_
 _atom_site_type_symbol
 _atom_site_label
 _atom_site_symmetry_multiplicity
 _atom_site_fract_x
 _atom_site_fract_y
 _atom_site_fract_z
 _atom_site_occupancy
 _atom_site_charge
In  In1  1  0.67769000  0.73929000  0.80642000  1.0 1.3564469512
In  In2  1  0.32231000  0.26071000  0.80642000  1.0 1.3564469512
In  In3  1  0.32231000  0.73929000  0.19358000  1.0 1.3564469512
In  In4  1  0.67769000  0.26071000  0.19358000  1.0 1.3564469512
In  In5  1  0.80642000  0.67769000  0.73929000  1.0 1.3564469512
In  In6  1  0.80642000  0.32231000  0.26071000  1.0 1.3564469512
In  In7  1  0.19358000  0.32231000  0.73929000  1.0 1.3564469512
In  In8  1  0.19358000  0.67769000  0.26071000  1.0 1.3564469512
In  In9  1  0.73929000  0.80642000  0.67769000  1.0 1.3564469512
In  In10  1  0.26071000  0.80642000  0.32231000  1.0 1.3564469512
In  In11  1  0.73929000  0.19358000  0.32231000  1.0 1.3564469512
In  In12  1  0.26071000  0.19358000  0.67769000  1.0 1.3564469512
In  In13  1  0.23929000  0.17769000  0.30642000  1.0 1.3564469512
In  In14  1  0.76071000  0.82231000  0.30642000  1.0 1.3564469512
In  In15  1  0.23929000  0.82231000  0.69358000  1.0 1.3564469512
In  In16  1  0.76071000  0.17769000  0.69358000  1.0 1.3564469512
In  In17  1  0.17769000  0.30642000  0.23929000  1.0 1.3564469512
In  In18  1  0.82231000  0.30642000  0.76071000  1.0 1.3564469512
In  In19  1  0.82231000  0.69358000  0.23929000  1.0 1.3564469512
In  In20  1  0.17769000  0.69358000  0.76071000  1.0 1.3564469512
In  In21  1  0.30642000  0.23929000  0.17769000  1.0 1.3564469512
In  In22  1  0.30642000  0.76071000  0.82231000  1.0 1.3564469512
In  In23  1  0.69358000  0.23929000  0.82231000  1.0 1.3564469512
In  In24  1  0.69358000  0.76071000  0.17769000  1.0 1.3564469512
H  H1  1  0.91780000  0.70530000  0.07460000  1.0 0.1387895416
H  H2  1  0.08220000  0.29470000  0.07460000  1.0 0.1387895416
H  H3  1  0.08220000  0.70530000  0.92540000  1.0 0.1387895416
H  H4  1  0.91780000  0.29470000  0.92540000  1.0 0.1387895416
H  H5  1  0.07460000  0.91780000  0.70530000  1.0 0.1387895416
H  H6  1  0.07460000  0.08220000  0.29470000  1.0 0.1387895416
H  H7  1  0.92540000  0.08220000  0.70530000  1.0 0.1387895416
H  H8  1  0.92540000  0.91780000  0.29470000  1.0 0.1387895416
H  H9  1  0.70530000  0.07460000  0.91780000  1.0 0.1387895416
H  H10  1  0.29470000  0.07460000  0.08220000  1.0 0.1387895416
H  H11  1  0.70530000  0.92540000  0.08220000  1.0 0.1387895416
H  H12  1  0.29470000  0.92540000  0.91780000  1.0 0.1387895416
H  H13  1  0.20530000  0.41780000  0.57460000  1.0 0.1387895416
H  H14  1  0.79470000  0.58220000  0.57460000  1.0 0.1387895416
H  H15  1  0.20530000  0.58220000  0.42540000  1.0 0.1387895416
H  H16  1  0.79470000  0.41780000  0.42540000  1.0 0.1387895416
H  H17  1  0.41780000  0.57460000  0.20530000  1.0 0.1387895416
H  H18  1  0.58220000  0.57460000  0.79470000  1.0 0.1387895416
H  H19  1  0.58220000  0.42540000  0.20530000  1.0 0.1387895416
H  H20  1  0.41780000  0.42540000  0.79470000  1.0 0.1387895416
H  H21  1  0.57460000  0.20530000  0.41780000  1.0 0.1387895416
H  H22  1  0.57460000  0.79470000  0.58220000  1.0 0.1387895416
H  H23  1  0.42540000  0.20530000  0.58220000  1.0 0.1387895416
H  H24  1  0.42540000  0.79470000  0.41780000  1.0 0.1387895416
H  H25  1  0.75870000  0.72050000  0.99070000  1.0 0.1478888487
H  H26  1  0.24130000  0.27950000  0.99070000  1.0 0.1478888487
H  H27  1  0.24130000  0.72050000  0.00930000  1.0 0.1478888487
H  H28  1  0.75870000  0.27950000  0.00930000  1.0 0.1478888487
H  H29  1  0.99070000  0.75870000  0.72050000  1.0 0.1478888487
H  H30  1  0.99070000  0.24130000  0.27950000  1.0 0.1478888487
H  H31  1  0.00930000  0.24130000  0.72050000  1.0 0.1478888487
H  H32  1  0.00930000  0.75870000  0.27950000  1.0 0.1478888487
H  H33  1  0.72050000  0.99070000  0.75870000  1.0 0.1478888487
H  H34  1  0.27950000  0.99070000  0.24130000  1.0 0.1478888487
H  H35  1  0.72050000  0.00930000  0.24130000  1.0 0.1478888487
H  H36  1  0.27950000  0.00930000  0.75870000  1.0 0.1478888487
H  H37  1  0.22050000  0.25870000  0.49070000  1.0 0.1478888487
H  H38  1  0.77950000  0.74130000  0.49070000  1.0 0.1478888487
H  H39  1  0.22050000  0.74130000  0.50930000  1.0 0.1478888487
H  H40  1  0.77950000  0.25870000  0.50930000  1.0 0.1478888487
H  H41  1  0.25870000  0.49070000  0.22050000  1.0 0.1478888487
H  H42  1  0.74130000  0.49070000  0.77950000  1.0 0.1478888487
H  H43  1  0.74130000  0.50930000  0.22050000  1.0 0.1478888487
H  H44  1  0.25870000  0.50930000  0.77950000  1.0 0.1478888487
H  H45  1  0.49070000  0.22050000  0.25870000  1.0 0.1478888487
H  H46  1  0.49070000  0.77950000  0.74130000  1.0 0.1478888487
H  H47  1  0.50930000  0.22050000  0.74130000  1.0 0.1478888487
H  H48  1  0.50930000  0.77950000  0.25870000  1.0 0.1478888487
H  H49  1  0.90870000  0.69310000  0.89440000  1.0 0.1478888487
H  H50  1  0.09130000  0.30690000  0.89440000  1.0 0.1478888487
H  H51  1  0.09130000  0.69310000  0.10560000  1.0 0.1478888487
H  H52  1  0.90870000  0.30690000  0.10560000  1.0 0.1478888487
H  H53  1  0.89440000  0.90870000  0.69310000  1.0 0.1478888487
H  H54  1  0.89440000  0.09130000  0.30690000  1.0 0.1478888487
H  H55  1  0.10560000  0.09130000  0.69310000  1.0 0.1478888487
H  H56  1  0.10560000  0.90870000  0.30690000  1.0 0.1478888487
H  H57  1  0.69310000  0.89440000  0.90870000  1.0 0.1478888487
H  H58  1  0.30690000  0.89440000  0.09130000  1.0 0.1478888487
H  H59  1  0.69310000  0.10560000  0.09130000  1.0 0.1478888487
H  H60  1  0.30690000  0.10560000  0.90870000  1.0 0.1478888487
H  H61  1  0.19310000  0.40870000  0.39440000  1.0 0.1478888487
H  H62  1  0.80690000  0.59130000  0.39440000  1.0 0.1478888487
H  H63  1  0.19310000  0.59130000  0.60560000  1.0 0.1478888487
H  H64  1  0.80690000  0.40870000  0.60560000  1.0 0.1478888487
H  H65  1  0.40870000  0.39440000  0.19310000  1.0 0.1478888487
H  H66  1  0.59130000  0.39440000  0.80690000  1.0 0.1478888487
H  H67  1  0.59130000  0.60560000  0.19310000  1.0 0.1478888487
H  H68  1  0.40870000  0.60560000  0.80690000  1.0 0.1478888487
H  H69  1  0.39440000  0.19310000  0.40870000  1.0 0.1478888487
H  H70  1  0.39440000  0.80690000  0.59130000  1.0 0.1478888487
H  H71  1  0.60560000  0.19310000  0.59130000  1.0 0.1478888487
H  H72  1  0.60560000  0.80690000  0.40870000  1.0 0.1478888487
C  C1  1  0.80510000  0.72000000  0.10150000  1.0 0.6258139295
C  C2  1  0.19490000  0.28000000  0.10150000  1.0 0.6258139295
C  C3  1  0.19490000  0.72000000  0.89850000  1.0 0.6258139295
C  C4  1  0.80510000  0.28000000  0.89850000  1.0 0.6258139295
C  C5  1  0.10150000  0.80510000  0.72000000  1.0 0.6258139295
C  C6  1  0.10150000  0.19490000  0.28000000  1.0 0.6258139295
C  C7  1  0.89850000  0.19490000  0.72000000  1.0 0.6258139295
C  C8  1  0.89850000  0.80510000  0.28000000  1.0 0.6258139295
C  C9  1  0.72000000  0.10150000  0.80510000  1.0 0.6258139295
C  C10  1  0.28000000  0.10150000  0.19490000  1.0 0.6258139295
C  C11  1  0.72000000  0.89850000  0.19490000  1.0 0.6258139295
C  C12  1  0.28000000  0.89850000  0.80510000  1.0 0.6258139295
C  C13  1  0.22000000  0.30510000  0.60150000  1.0 0.6258139295
C  C14  1  0.78000000  0.69490000  0.60150000  1.0 0.6258139295
C  C15  1  0.22000000  0.69490000  0.39850000  1.0 0.6258139295
C  C16  1  0.78000000  0.30510000  0.39850000  1.0 0.6258139295
C  C17  1  0.30510000  0.60150000  0.22000000  1.0 0.6258139295
C  C18  1  0.69490000  0.60150000  0.78000000  1.0 0.6258139295
C  C19  1  0.69490000  0.39850000  0.22000000  1.0 0.6258139295
C  C20  1  0.30510000  0.39850000  0.78000000  1.0 0.6258139295
C  C21  1  0.60150000  0.22000000  0.30510000  1.0 0.6258139295
C  C22  1  0.60150000  0.78000000  0.69490000  1.0 0.6258139295
C  C23  1  0.39850000  0.22000000  0.69490000  1.0 0.6258139295
C  C24  1  0.39850000  0.78000000  0.30510000  1.0 0.6258139295
C  C25  1  0.79490000  0.70530000  0.87710000  1.0 0.6258139295
C  C26  1  0.20510000  0.29470000  0.87710000  1.0 0.6258139295
C  C27  1  0.20510000  0.70530000  0.12290000  1.0 0.6258139295
C  C28  1  0.79490000  0.29470000  0.12290000  1.0 0.6258139295
C  C29  1  0.87710000  0.79490000  0.70530000  1.0 0.6258139295
C  C30  1  0.87710000  0.20510000  0.29470000  1.0 0.6258139295
C  C31  1  0.12290000  0.20510000  0.70530000  1.0 0.6258139295
C  C32  1  0.12290000  0.79490000  0.29470000  1.0 0.6258139295
C  C33  1  0.70530000  0.87710000  0.79490000  1.0 0.6258139295
C  C34  1  0.29470000  0.87710000  0.20510000  1.0 0.6258139295
C  C35  1  0.70530000  0.12290000  0.20510000  1.0 0.6258139295
C  C36  1  0.29470000  0.12290000  0.79490000  1.0 0.6258139295
C  C37  1  0.20530000  0.29490000  0.37710000  1.0 0.6258139295
C  C38  1  0.79470000  0.70510000  0.37710000  1.0 0.6258139295
C  C39  1  0.20530000  0.70510000  0.62290000  1.0 0.6258139295
C  C40  1  0.79470000  0.29490000  0.62290000  1.0 0.6258139295
C  C41  1  0.29490000  0.37710000  0.20530000  1.0 0.6258139295
C  C42  1  0.70510000  0.37710000  0.79470000  1.0 0.6258139295
C  C43  1  0.70510000  0.62290000  0.20530000  1.0 0.6258139295
C  C44  1  0.29490000  0.62290000  0.79470000  1.0 0.6258139295
C  C45  1  0.37710000  0.20530000  0.29490000  1.0 0.6258139295
C  C46  1  0.37710000  0.79470000  0.70510000  1.0 0.6258139295
C  C47  1  0.62290000  0.20530000  0.70510000  1.0 0.6258139295
C  C48  1  0.62290000  0.79470000  0.29490000  1.0 0.6258139295
C  C49  1  0.82850000  0.70640000  0.93460000  1.0 -0.0177223947
C  C50  1  0.17150000  0.29360000  0.93460000  1.0 -0.0177223947
C  C51  1  0.17150000  0.70640000  0.06540000  1.0 -0.0177223947
C  C52  1  0.82850000  0.29360000  0.06540000  1.0 -0.0177223947
C  C53  1  0.93460000  0.82850000  0.70640000  1.0 -0.0177223947
C  C54  1  0.93460000  0.17150000  0.29360000  1.0 -0.0177223947
C  C55  1  0.06540000  0.17150000  0.70640000  1.0 -0.0177223947
C  C56  1  0.06540000  0.82850000  0.29360000  1.0 -0.0177223947
C  C57  1  0.70640000  0.93460000  0.82850000  1.0 -0.0177223947
C  C58  1  0.29360000  0.93460000  0.17150000  1.0 -0.0177223947
C  C59  1  0.70640000  0.06540000  0.17150000  1.0 -0.0177223947
C  C60  1  0.29360000  0.06540000  0.82850000  1.0 -0.0177223947
C  C61  1  0.20640000  0.32850000  0.43460000  1.0 -0.0177223947
C  C62  1  0.79360000  0.67150000  0.43460000  1.0 -0.0177223947
C  C63  1  0.20640000  0.67150000  0.56540000  1.0 -0.0177223947
C  C64  1  0.79360000  0.32850000  0.56540000  1.0 -0.0177223947
C  C65  1  0.32850000  0.43460000  0.20640000  1.0 -0.0177223947
C  C66  1  0.67150000  0.43460000  0.79360000  1.0 -0.0177223947
C  C67  1  0.67150000  0.56540000  0.20640000  1.0 -0.0177223947
C  C68  1  0.32850000  0.56540000  0.79360000  1.0 -0.0177223947
C  C69  1  0.43460000  0.20640000  0.32850000  1.0 -0.0177223947
C  C70  1  0.43460000  0.79360000  0.67150000  1.0 -0.0177223947
C  C71  1  0.56540000  0.20640000  0.67150000  1.0 -0.0177223947
C  C72  1  0.56540000  0.79360000  0.32850000  1.0 -0.0177223947
C  C73  1  0.89490000  0.70570000  0.03900000  1.0 -0.1375866121
C  C74  1  0.10510000  0.29430000  0.03900000  1.0 -0.1375866121
C  C75  1  0.10510000  0.70570000  0.96100000  1.0 -0.1375866121
C  C76  1  0.89490000  0.29430000  0.96100000  1.0 -0.1375866121
C  C77  1  0.03900000  0.89490000  0.70570000  1.0 -0.1375866121
C  C78  1  0.03900000  0.10510000  0.29430000  1.0 -0.1375866121
C  C79  1  0.96100000  0.10510000  0.70570000  1.0 -0.1375866121
C  C80  1  0.96100000  0.89490000  0.29430000  1.0 -0.1375866121
C  C81  1  0.70570000  0.03900000  0.89490000  1.0 -0.1375866121
C  C82  1  0.29430000  0.03900000  0.10510000  1.0 -0.1375866121
C  C83  1  0.70570000  0.96100000  0.10510000  1.0 -0.1375866121
C  C84  1  0.29430000  0.96100000  0.89490000  1.0 -0.1375866121
C  C85  1  0.20570000  0.39490000  0.53900000  1.0 -0.1375866121
C  C86  1  0.79430000  0.60510000  0.53900000  1.0 -0.1375866121
C  C87  1  0.20570000  0.60510000  0.46100000  1.0 -0.1375866121
C  C88  1  0.79430000  0.39490000  0.46100000  1.0 -0.1375866121
C  C89  1  0.39490000  0.53900000  0.20570000  1.0 -0.1375866121
C  C90  1  0.60510000  0.53900000  0.79430000  1.0 -0.1375866121
C  C91  1  0.60510000  0.46100000  0.20570000  1.0 -0.1375866121
C  C92  1  0.39490000  0.46100000  0.79430000  1.0 -0.1375866121
C  C93  1  0.53900000  0.20570000  0.39490000  1.0 -0.1375866121
C  C94  1  0.53900000  0.79430000  0.60510000  1.0 -0.1375866121
C  C95  1  0.46100000  0.20570000  0.60510000  1.0 -0.1375866121
C  C96  1  0.46100000  0.79430000  0.39490000  1.0 -0.1375866121
C  C97  1  0.80050000  0.71430000  0.98900000  1.0 -0.0836936222
C  C98  1  0.19950000  0.28570000  0.98900000  1.0 -0.0836936222
C  C99  1  0.19950000  0.71430000  0.01100000  1.0 -0.0836936222
C  C100  1  0.80050000  0.28570000  0.01100000  1.0 -0.0836936222
C  C101  1  0.98900000  0.80050000  0.71430000  1.0 -0.0836936222
C  C102  1  0.98900000  0.19950000  0.28570000  1.0 -0.0836936222
C  C103  1  0.01100000  0.19950000  0.71430000  1.0 -0.0836936222
C  C104  1  0.01100000  0.80050000  0.28570000  1.0 -0.0836936222
C  C105  1  0.71430000  0.98900000  0.80050000  1.0 -0.0836936222
C  C106  1  0.28570000  0.98900000  0.19950000  1.0 -0.0836936222
C  C107  1  0.71430000  0.01100000  0.19950000  1.0 -0.0836936222
C  C108  1  0.28570000  0.01100000  0.80050000  1.0 -0.0836936222
C  C109  1  0.21430000  0.30050000  0.48900000  1.0 -0.0836936222
C  C110  1  0.78570000  0.69950000  0.48900000  1.0 -0.0836936222
C  C111  1  0.21430000  0.69950000  0.51100000  1.0 -0.0836936222
C  C112  1  0.78570000  0.30050000  0.51100000  1.0 -0.0836936222
C  C113  1  0.30050000  0.48900000  0.21430000  1.0 -0.0836936222
C  C114  1  0.69950000  0.48900000  0.78570000  1.0 -0.0836936222
C  C115  1  0.69950000  0.51100000  0.21430000  1.0 -0.0836936222
C  C116  1  0.30050000  0.51100000  0.78570000  1.0 -0.0836936222
C  C117  1  0.48900000  0.21430000  0.30050000  1.0 -0.0836936222
C  C118  1  0.48900000  0.78570000  0.69950000  1.0 -0.0836936222
C  C119  1  0.51100000  0.21430000  0.69950000  1.0 -0.0836936222
C  C120  1  0.51100000  0.78570000  0.30050000  1.0 -0.0836936222
C  C121  1  0.83410000  0.71310000  0.04150000  1.0 -0.0120106339
C  C122  1  0.16590000  0.28690000  0.04150000  1.0 -0.0120106339
C  C123  1  0.16590000  0.71310000  0.95850000  1.0 -0.0120106339
C  C124  1  0.83410000  0.28690000  0.95850000  1.0 -0.0120106339
C  C125  1  0.04150000  0.83410000  0.71310000  1.0 -0.0120106339
C  C126  1  0.04150000  0.16590000  0.28690000  1.0 -0.0120106339
C  C127  1  0.95850000  0.16590000  0.71310000  1.0 -0.0120106339
C  C128  1  0.95850000  0.83410000  0.28690000  1.0 -0.0120106339
C  C129  1  0.71310000  0.04150000  0.83410000  1.0 -0.0120106339
C  C130  1  0.28690000  0.04150000  0.16590000  1.0 -0.0120106339
C  C131  1  0.71310000  0.95850000  0.16590000  1.0 -0.0120106339
C  C132  1  0.28690000  0.95850000  0.83410000  1.0 -0.0120106339
C  C133  1  0.21310000  0.33410000  0.54150000  1.0 -0.0120106339
C  C134  1  0.78690000  0.66590000  0.54150000  1.0 -0.0120106339
C  C135  1  0.21310000  0.66590000  0.45850000  1.0 -0.0120106339
C  C136  1  0.78690000  0.33410000  0.45850000  1.0 -0.0120106339
C  C137  1  0.33410000  0.54150000  0.21310000  1.0 -0.0120106339
C  C138  1  0.66590000  0.54150000  0.78690000  1.0 -0.0120106339
C  C139  1  0.66590000  0.45850000  0.21310000  1.0 -0.0120106339
C  C140  1  0.33410000  0.45850000  0.78690000  1.0 -0.0120106339
C  C141  1  0.54150000  0.21310000  0.33410000  1.0 -0.0120106339
C  C142  1  0.54150000  0.78690000  0.66590000  1.0 -0.0120106339
C  C143  1  0.45850000  0.21310000  0.66590000  1.0 -0.0120106339
C  C144  1  0.45850000  0.78690000  0.33410000  1.0 -0.0120106339
C  C145  1  0.92270000  0.69870000  0.98430000  1.0 0.1562455137
C  C146  1  0.07730000  0.30130000  0.98430000  1.0 0.1562455137
C  C147  1  0.07730000  0.69870000  0.01570000  1.0 0.1562455137
C  C148  1  0.92270000  0.30130000  0.01570000  1.0 0.1562455137
C  C149  1  0.98430000  0.92270000  0.69870000  1.0 0.1562455137
C  C150  1  0.98430000  0.07730000  0.30130000  1.0 0.1562455137
C  C151  1  0.01570000  0.07730000  0.69870000  1.0 0.1562455137
C  C152  1  0.01570000  0.92270000  0.30130000  1.0 0.1562455137
C  C153  1  0.69870000  0.98430000  0.92270000  1.0 0.1562455137
C  C154  1  0.30130000  0.98430000  0.07730000  1.0 0.1562455137
C  C155  1  0.69870000  0.01570000  0.07730000  1.0 0.1562455137
C  C156  1  0.30130000  0.01570000  0.92270000  1.0 0.1562455137
C  C157  1  0.19870000  0.42270000  0.48430000  1.0 0.1562455137
C  C158  1  0.80130000  0.57730000  0.48430000  1.0 0.1562455137
C  C159  1  0.19870000  0.57730000  0.51570000  1.0 0.1562455137
C  C160  1  0.80130000  0.42270000  0.51570000  1.0 0.1562455137
C  C161  1  0.42270000  0.48430000  0.19870000  1.0 0.1562455137
C  C162  1  0.57730000  0.48430000  0.80130000  1.0 0.1562455137
C  C163  1  0.57730000  0.51570000  0.19870000  1.0 0.1562455137
C  C164  1  0.42270000  0.51570000  0.80130000  1.0 0.1562455137
C  C165  1  0.48430000  0.19870000  0.42270000  1.0 0.1562455137
C  C166  1  0.48430000  0.80130000  0.57730000  1.0 0.1562455137
C  C167  1  0.51570000  0.19870000  0.57730000  1.0 0.1562455137
C  C168  1  0.51570000  0.80130000  0.42270000  1.0 0.1562455137
C  C169  1  0.88960000  0.69860000  0.93180000  1.0 -0.1375866121
C  C170  1  0.11040000  0.30140000  0.93180000  1.0 -0.1375866121
C  C171  1  0.11040000  0.69860000  0.06820000  1.0 -0.1375866121
C  C172  1  0.88960000  0.30140000  0.06820000  1.0 -0.1375866121
C  C173  1  0.93180000  0.88960000  0.69860000  1.0 -0.1375866121
C  C174  1  0.93180000  0.11040000  0.30140000  1.0 -0.1375866121
C  C175  1  0.06820000  0.11040000  0.69860000  1.0 -0.1375866121
C  C176  1  0.06820000  0.88960000  0.30140000  1.0 -0.1375866121
C  C177  1  0.69860000  0.93180000  0.88960000  1.0 -0.1375866121
C  C178  1  0.30140000  0.93180000  0.11040000  1.0 -0.1375866121
C  C179  1  0.69860000  0.06820000  0.11040000  1.0 -0.1375866121
C  C180  1  0.30140000  0.06820000  0.88960000  1.0 -0.1375866121
C  C181  1  0.19860000  0.38960000  0.43180000  1.0 -0.1375866121
C  C182  1  0.80140000  0.61040000  0.43180000  1.0 -0.1375866121
C  C183  1  0.19860000  0.61040000  0.56820000  1.0 -0.1375866121
C  C184  1  0.80140000  0.38960000  0.56820000  1.0 -0.1375866121
C  C185  1  0.38960000  0.43180000  0.19860000  1.0 -0.1375866121
C  C186  1  0.61040000  0.43180000  0.80140000  1.0 -0.1375866121
C  C187  1  0.61040000  0.56820000  0.19860000  1.0 -0.1375866121
C  C188  1  0.38960000  0.56820000  0.80140000  1.0 -0.1375866121
C  C189  1  0.43180000  0.19860000  0.38960000  1.0 -0.1375866121
C  C190  1  0.43180000  0.80140000  0.61040000  1.0 -0.1375866121
C  C191  1  0.56820000  0.19860000  0.61040000  1.0 -0.1375866121
C  C192  1  0.56820000  0.80140000  0.38960000  1.0 -0.1375866121
N  N1  1  0.98620000  0.69570000  0.97710000  1.0 -0.1112390059
N  N2  1  0.01380000  0.30430000  0.97710000  1.0 -0.1112390059
N  N3  1  0.01380000  0.69570000  0.02290000  1.0 -0.1112390059
N  N4  1  0.98620000  0.30430000  0.02290000  1.0 -0.1112390059
N  N5  1  0.97710000  0.98620000  0.69570000  1.0 -0.1112390059
N  N6  1  0.97710000  0.01380000  0.30430000  1.0 -0.1112390059
N  N7  1  0.02290000  0.01380000  0.69570000  1.0 -0.1112390059
N  N8  1  0.02290000  0.98620000  0.30430000  1.0 -0.1112390059
N  N9  1  0.69570000  0.97710000  0.98620000  1.0 -0.1112390059
N  N10  1  0.30430000  0.97710000  0.01380000  1.0 -0.1112390059
N  N11  1  0.69570000  0.02290000  0.01380000  1.0 -0.1112390059
N  N12  1  0.30430000  0.02290000  0.98620000  1.0 -0.1112390059
N  N13  1  0.19570000  0.48620000  0.47710000  1.0 -0.1112390059
N  N14  1  0.80430000  0.51380000  0.47710000  1.0 -0.1112390059
N  N15  1  0.19570000  0.51380000  0.52290000  1.0 -0.1112390059
N  N16  1  0.80430000  0.48620000  0.52290000  1.0 -0.1112390059
N  N17  1  0.48620000  0.47710000  0.19570000  1.0 -0.1112390059
N  N18  1  0.51380000  0.47710000  0.80430000  1.0 -0.1112390059
N  N19  1  0.51380000  0.52290000  0.19570000  1.0 -0.1112390059
N  N20  1  0.48620000  0.52290000  0.80430000  1.0 -0.1112390059
N  N21  1  0.47710000  0.19570000  0.48620000  1.0 -0.1112390059
N  N22  1  0.47710000  0.80430000  0.51380000  1.0 -0.1112390059
N  N23  1  0.52290000  0.19570000  0.51380000  1.0 -0.1112390059
N  N24  1  0.52290000  0.80430000  0.48620000  1.0 -0.1112390059
Cl  Cl1  1  0.60440000  0.73720000  0.88780000  0.33 0.2175510254
Cl  Cl2  1  0.39560000  0.26280000  0.88780000  0.33 0.2175510254
Cl  Cl3  1  0.39560000  0.73720000  0.11220000  0.33 0.2175510254
Cl  Cl4  1  0.60440000  0.26280000  0.11220000  0.33 0.2175510254
Cl  Cl5  1  0.88780000  0.60440000  0.73720000  0.33 0.2175510254
Cl  Cl6  1  0.88780000  0.39560000  0.26280000  0.33 0.2175510254
Cl  Cl7  1  0.11220000  0.39560000  0.73720000  0.33 0.2175510254
Cl  Cl8  1  0.11220000  0.60440000  0.26280000  0.33 0.2175510254
Cl  Cl9  1  0.73720000  0.88780000  0.60440000  0.33 0.2175510254
Cl  Cl10  1  0.26280000  0.88780000  0.39560000  0.33 0.2175510254
Cl  Cl11  1  0.73720000  0.11220000  0.39560000  0.33 0.2175510254
Cl  Cl12  1  0.26280000  0.11220000  0.60440000  0.33 0.2175510254
Cl  Cl13  1  0.23720000  0.10440000  0.38780000  0.33 0.2175510254
Cl  Cl14  1  0.76280000  0.89560000  0.38780000  0.33 0.2175510254
Cl  Cl15  1  0.23720000  0.89560000  0.61220000  0.33 0.2175510254
Cl  Cl16  1  0.76280000  0.10440000  0.61220000  0.33 0.2175510254
Cl  Cl17  1  0.10440000  0.38780000  0.23720000  0.33 0.2175510254
Cl  Cl18  1  0.89560000  0.38780000  0.76280000  0.33 0.2175510254
Cl  Cl19  1  0.89560000  0.61220000  0.23720000  0.33 0.2175510254
Cl  Cl20  1  0.10440000  0.61220000  0.76280000  0.33 0.2175510254
Cl  Cl21  1  0.38780000  0.23720000  0.10440000  0.33 0.2175510254
Cl  Cl22  1  0.38780000  0.76280000  0.89560000  0.33 0.2175510254
Cl  Cl23  1  0.61220000  0.23720000  0.89560000  0.33 0.2175510254
Cl  Cl24  1  0.61220000  0.76280000  0.10440000  0.33 0.2175510254
O  O1  1  0.74030000  0.74030000  0.74030000  1.0 -1.01364556
O  O2  1  0.25970000  0.25970000  0.74030000  1.0 -1.01364556
O  O3  1  0.25970000  0.74030000  0.25970000  1.0 -1.01364556
O  O4  1  0.74030000  0.25970000  0.25970000  1.0 -1.01364556
O  O5  1  0.24030000  0.24030000  0.24030000  1.0 -1.01364556
O  O6  1  0.75970000  0.75970000  0.24030000  1.0 -1.01364556
O  O7  1  0.24030000  0.75970000  0.75970000  1.0 -1.01364556
O  O8  1  0.75970000  0.24030000  0.75970000  1.0 -1.01364556
O  O9  1  0.74070000  0.72050000  0.87857000  1.0 -0.5391578323
O  O10  1  0.25930000  0.27950000  0.87857000  1.0 -0.5391578323
O  O11  1  0.25930000  0.72050000  0.12143000  1.0 -0.5391578323
O  O12  1  0.74070000  0.27950000  0.12143000  1.0 -0.5391578323
O  O13  1  0.87857000  0.74070000  0.72050000  1.0 -0.5391578323
O  O14  1  0.87857000  0.25930000  0.27950000  1.0 -0.5391578323
O  O15  1  0.12143000  0.25930000  0.72050000  1.0 -0.5391578323
O  O16  1  0.12143000  0.74070000  0.27950000  1.0 -0.5391578323
O  O17  1  0.72050000  0.87857000  0.74070000  1.0 -0.5391578323
O  O18  1  0.27950000  0.87857000  0.25930000  1.0 -0.5391578323
O  O19  1  0.72050000  0.12143000  0.25930000  1.0 -0.5391578323
O  O20  1  0.27950000  0.12143000  0.74070000  1.0 -0.5391578323
O  O21  1  0.22050000  0.24070000  0.37857000  1.0 -0.5391578323
O  O22  1  0.77950000  0.75930000  0.37857000  1.0 -0.5391578323
O  O23  1  0.22050000  0.75930000  0.62143000  1.0 -0.5391578323
O  O24  1  0.77950000  0.24070000  0.62143000  1.0 -0.5391578323
O  O25  1  0.24070000  0.37857000  0.22050000  1.0 -0.5391578323
O  O26  1  0.75930000  0.37857000  0.77950000  1.0 -0.5391578323
O  O27  1  0.75930000  0.62143000  0.22050000  1.0 -0.5391578323
O  O28  1  0.24070000  0.62143000  0.77950000  1.0 -0.5391578323
O  O29  1  0.37857000  0.22050000  0.24070000  1.0 -0.5391578323
O  O30  1  0.37857000  0.77950000  0.75930000  1.0 -0.5391578323
O  O31  1  0.62143000  0.22050000  0.75930000  1.0 -0.5391578323
O  O32  1  0.62143000  0.77950000  0.24070000  1.0 -0.5391578323
O  O33  1  0.82450000  0.69000000  0.83225000  1.0 -0.5391578323
O  O34  1  0.17550000  0.31000000  0.83225000  1.0 -0.5391578323
O  O35  1  0.17550000  0.69000000  0.16775000  1.0 -0.5391578323
O  O36  1  0.82450000  0.31000000  0.16775000  1.0 -0.5391578323
O  O37  1  0.83225000  0.82450000  0.69000000  1.0 -0.5391578323
O  O38  1  0.83225000  0.17550000  0.31000000  1.0 -0.5391578323
O  O39  1  0.16775000  0.17550000  0.69000000  1.0 -0.5391578323
O  O40  1  0.16775000  0.82450000  0.31000000  1.0 -0.5391578323
O  O41  1  0.69000000  0.83225000  0.82450000  1.0 -0.5391578323
O  O42  1  0.31000000  0.83225000  0.17550000  1.0 -0.5391578323
O  O43  1  0.69000000  0.16775000  0.17550000  1.0 -0.5391578323
O  O44  1  0.31000000  0.16775000  0.82450000  1.0 -0.5391578323
O  O45  1  0.19000000  0.32450000  0.33225000  1.0 -0.5391578323
O  O46  1  0.81000000  0.67550000  0.33225000  1.0 -0.5391578323
O  O47  1  0.19000000  0.67550000  0.66775000  1.0 -0.5391578323
O  O48  1  0.81000000  0.32450000  0.66775000  1.0 -0.5391578323
O  O49  1  0.32450000  0.33225000  0.19000000  1.0 -0.5391578323
O  O50  1  0.67550000  0.33225000  0.81000000  1.0 -0.5391578323
O  O51  1  0.67550000  0.66775000  0.19000000  1.0 -0.5391578323
O  O52  1  0.32450000  0.66775000  0.81000000  1.0 -0.5391578323
O  O53  1  0.33225000  0.19000000  0.32450000  1.0 -0.5391578323
O  O54  1  0.33225000  0.81000000  0.67550000  1.0 -0.5391578323
O  O55  1  0.66775000  0.19000000  0.67550000  1.0 -0.5391578323
O  O56  1  0.66775000  0.81000000  0.32450000  1.0 -0.5391578323
O  O57  1  0.83720000  0.70610000  0.14586000  1.0 -0.5391578323
O  O58  1  0.16280000  0.29390000  0.14586000  1.0 -0.5391578323
O  O59  1  0.16280000  0.70610000  0.85414000  1.0 -0.5391578323
O  O60  1  0.83720000  0.29390000  0.85414000  1.0 -0.5391578323
O  O61  1  0.14586000  0.83720000  0.70610000  1.0 -0.5391578323
O  O62  1  0.14586000  0.16280000  0.29390000  1.0 -0.5391578323
O  O63  1  0.85414000  0.16280000  0.70610000  1.0 -0.5391578323
O  O64  1  0.85414000  0.83720000  0.29390000  1.0 -0.5391578323
O  O65  1  0.70610000  0.14586000  0.83720000  1.0 -0.5391578323
O  O66  1  0.29390000  0.14586000  0.16280000  1.0 -0.5391578323
O  O67  1  0.70610000  0.85414000  0.16280000  1.0 -0.5391578323
O  O68  1  0.29390000  0.85414000  0.83720000  1.0 -0.5391578323
O  O69  1  0.20610000  0.33720000  0.64586000  1.0 -0.5391578323
O  O70  1  0.79390000  0.66280000  0.64586000  1.0 -0.5391578323
O  O71  1  0.20610000  0.66280000  0.35414000  1.0 -0.5391578323
O  O72  1  0.79390000  0.33720000  0.35414000  1.0 -0.5391578323
O  O73  1  0.33720000  0.64586000  0.20610000  1.0 -0.5391578323
O  O74  1  0.66280000  0.64586000  0.79390000  1.0 -0.5391578323
O  O75  1  0.66280000  0.35414000  0.20610000  1.0 -0.5391578323
O  O76  1  0.33720000  0.35414000  0.79390000  1.0 -0.5391578323
O  O77  1  0.64586000  0.20610000  0.33720000  1.0 -0.5391578323
O  O78  1  0.64586000  0.79390000  0.66280000  1.0 -0.5391578323
O  O79  1  0.35414000  0.20610000  0.66280000  1.0 -0.5391578323
O  O80  1  0.35414000  0.79390000  0.33720000  1.0 -0.5391578323
O  O81  1  0.75246000  0.73870000  0.10330000  1.0 -0.5259200687
O  O82  1  0.24754000  0.26130000  0.10330000  1.0 -0.5259200687
O  O83  1  0.24754000  0.73870000  0.89670000  1.0 -0.5259200687
O  O84  1  0.75246000  0.26130000  0.89670000  1.0 -0.5259200687
O  O85  1  0.10330000  0.75246000  0.73870000  1.0 -0.5259200687
O  O86  1  0.10330000  0.24754000  0.26130000  1.0 -0.5259200687
O  O87  1  0.89670000  0.24754000  0.73870000  1.0 -0.5259200687
O  O88  1  0.89670000  0.75246000  0.26130000  1.0 -0.5259200687
O  O89  1  0.73870000  0.10330000  0.75246000  1.0 -0.5259200687
O  O90  1  0.26130000  0.10330000  0.24754000  1.0 -0.5259200687
O  O91  1  0.73870000  0.89670000  0.24754000  1.0 -0.5259200687
O  O92  1  0.26130000  0.89670000  0.75246000  1.0 -0.5259200687
O  O93  1  0.23870000  0.25246000  0.60330000  1.0 -0.5259200687
O  O94  1  0.76130000  0.74754000  0.60330000  1.0 -0.5259200687
O  O95  1  0.23870000  0.74754000  0.39670000  1.0 -0.5259200687
O  O96  1  0.76130000  0.25246000  0.39670000  1.0 -0.5259200687
O  O97  1  0.25246000  0.60330000  0.23870000  1.0 -0.5259200687
O  O98  1  0.74754000  0.60330000  0.76130000  1.0 -0.5259200687
O  O99  1  0.74754000  0.39670000  0.23870000  1.0 -0.5259200687
O  O100  1  0.25246000  0.39670000  0.76130000  1.0 -0.5259200687
O  O101  1  0.60330000  0.23870000  0.25246000  1.0 -0.5259200687
O  O102  1  0.60330000  0.76130000  0.74754000  1.0 -0.5259200687
O  O103  1  0.39670000  0.23870000  0.74754000  1.0 -0.5259200687
O  O104  1  0.39670000  0.76130000  0.25246000  1.0 -0.5259200687
O  O105  1  0.60710000  0.73880000  0.87200000  0.67 -0.4354122144
O  O106  1  0.39290000  0.26120000  0.87200000  0.67 -0.4354122144
O  O107  1  0.39290000  0.73880000  0.12800000  0.67 -0.4354122144
O  O108  1  0.60710000  0.26120000  0.12800000  0.67 -0.4347088044
O  O109  1  0.87200000  0.60710000  0.73880000  0.67 -0.4354122144
O  O110  1  0.87200000  0.39290000  0.26120000  0.67 -0.4354122144
O  O111  1  0.12800000  0.39290000  0.73880000  0.67 -0.4354122144
O  O112  1  0.12800000  0.60710000  0.26120000  0.67 -0.4354122144
O  O113  1  0.73880000  0.87200000  0.60710000  0.67 -0.4354122144
O  O114  1  0.26120000  0.87200000  0.39290000  0.67 -0.4354122144
O  O115  1  0.73880000  0.12800000  0.39290000  0.67 -0.4347088044
O  O116  1  0.26120000  0.12800000  0.60710000  0.67 -0.4354122144
O  O117  1  0.23880000  0.10710000  0.37200000  0.67 -0.4354122144
O  O118  1  0.76120000  0.89290000  0.37200000  0.67 -0.4354122144
O  O119  1  0.23880000  0.89290000  0.62800000  0.67 -0.4354122144
O  O120  1  0.76120000  0.10710000  0.62800000  0.67 -0.4347088044
O  O121  1  0.10710000  0.37200000  0.23880000  0.67 -0.4354122144
O  O122  1  0.89290000  0.37200000  0.76120000  0.67 -0.4354122144
O  O123  1  0.89290000  0.62800000  0.23880000  0.67 -0.4354122144
O  O124  1  0.10710000  0.62800000  0.76120000  0.67 -0.4354122144
O  O125  1  0.37200000  0.23880000  0.10710000  0.67 -0.4354122144
O  O126  1  0.37200000  0.76120000  0.89290000  0.67 -0.4354122144
O  O127  1  0.62800000  0.23880000  0.89290000  0.67 -0.4354122144
O  O128  1  0.62800000  0.76120000  0.10710000  0.67 -0.4354122144
