# DDEC6 charges by PACMAN v1.1 (https://github.com/mtap-research/PACMAN-charge/)
data_c9qm00644c2_1_FSR_pacman
_symmetry_space_group_name_H-M   'P 1'
_cell_length_a   19.51900000
_cell_length_b   19.51900000
_cell_length_c   49.10680000
_cell_angle_alpha   90.00000000
_cell_angle_beta   90.00000000
_cell_angle_gamma   90.00000000
_symmetry_Int_Tables_number   1
_chemical_formula_structural   In3H30C48(N3O4)4
_chemical_formula_sum   'In12 H120 C192 N48 O64'
_cell_volume   18709.26656635
_cell_formula_units_Z   4
loop_
 _symmetry_equiv_pos_site_id
 _symmetry_equiv_pos_as_xyz
  1  'x, y, z'
loop_
 _atom_site_type_symbol
 _atom_site_label
 _atom_site_symmetry_multiplicity
 _atom_site_fract_x
 _atom_site_fract_y
 _atom_site_fract_z
 _atom_site_occupancy
 _atom_site_charge
In  In1  1  0.46819000  0.43044000  0.53326000  1.0 1.4769016101
In  In2  1  0.53181000  0.56956000  0.03326000  1.0 1.4769016101
In  In3  1  0.06956000  0.96819000  0.78326000  1.0 1.4769016101
In  In4  1  0.93044000  0.03181000  0.28326000  1.0 1.4769016101
In  In5  1  0.03181000  0.93044000  0.71674000  1.0 1.4769016101
In  In6  1  0.96819000  0.06956000  0.21674000  1.0 1.4769016101
In  In7  1  0.43044000  0.46819000  0.46674000  1.0 1.4769016101
In  In8  1  0.56956000  0.53181000  0.96674000  1.0 1.4769016101
In  In9  1  0.55921000  0.55921000  0.50000000  1.0 1.5036365583
In  In10  1  0.44079000  0.44079000  0.00000000  1.0 1.5036365583
In  In11  1  0.94079000  0.05921000  0.75000000  1.0 1.5036365583
In  In12  1  0.05921000  0.94079000  0.25000000  1.0 1.5036365583
H  H1  1  0.39440000  0.57230000  0.59540000  1.0 0.1388971814
H  H2  1  0.60560000  0.42770000  0.09540000  1.0 0.1388971814
H  H3  1  0.92770000  0.89440000  0.84540000  1.0 0.1388971814
H  H4  1  0.07230000  0.10560000  0.34540000  1.0 0.1388971814
H  H5  1  0.10560000  0.07230000  0.65460000  1.0 0.1388971814
H  H6  1  0.89440000  0.92770000  0.15460000  1.0 0.1388971814
H  H7  1  0.57230000  0.39440000  0.40460000  1.0 0.1388971814
H  H8  1  0.42770000  0.60560000  0.90460000  1.0 0.1388971814
H  H9  1  0.37270000  0.64930000  0.63010000  1.0 0.1318331424
H  H10  1  0.62730000  0.35070000  0.13010000  1.0 0.1318331424
H  H11  1  0.85070000  0.87270000  0.88010000  1.0 0.1318331424
H  H12  1  0.14930000  0.12730000  0.38010000  1.0 0.1318331424
H  H13  1  0.12730000  0.14930000  0.61990000  1.0 0.1318331424
H  H14  1  0.87270000  0.85070000  0.11990000  1.0 0.1318331424
H  H15  1  0.64930000  0.37270000  0.36990000  1.0 0.1318331424
H  H16  1  0.35070000  0.62730000  0.86990000  1.0 0.1318331424
H  H17  1  0.52630000  0.76430000  0.60480000  1.0 0.1318331424
H  H18  1  0.47370000  0.23570000  0.10480000  1.0 0.1318331424
H  H19  1  0.73570000  0.02630000  0.85480000  1.0 0.1318331424
H  H20  1  0.26430000  0.97370000  0.35480000  1.0 0.1318331424
H  H21  1  0.97370000  0.26430000  0.64520000  1.0 0.1318331424
H  H22  1  0.02630000  0.73570000  0.14520000  1.0 0.1318331424
H  H23  1  0.76430000  0.52630000  0.39520000  1.0 0.1318331424
H  H24  1  0.23570000  0.47370000  0.89520000  1.0 0.1318331424
H  H25  1  0.54550000  0.69190000  0.57020000  1.0 0.1388971814
H  H26  1  0.45450000  0.30810000  0.07020000  1.0 0.1388971814
H  H27  1  0.80810000  0.04550000  0.82020000  1.0 0.1388971814
H  H28  1  0.19190000  0.95450000  0.32020000  1.0 0.1388971814
H  H29  1  0.95450000  0.19190000  0.67980000  1.0 0.1388971814
H  H30  1  0.04550000  0.80810000  0.17980000  1.0 0.1388971814
H  H31  1  0.69190000  0.54550000  0.42980000  1.0 0.1388971814
H  H32  1  0.30810000  0.45450000  0.92980000  1.0 0.1388971814
H  H33  1  0.76340000  0.81110000  0.65550000  1.0 0.1318331424
H  H34  1  0.23660000  0.18890000  0.15550000  1.0 0.1388971814
H  H35  1  0.68890000  0.26340000  0.90550000  1.0 0.1318331424
H  H36  1  0.31110000  0.73660000  0.40550000  1.0 0.1318331424
H  H37  1  0.73660000  0.31110000  0.59450000  1.0 0.1318331424
H  H38  1  0.26340000  0.68890000  0.09450000  1.0 0.1318331424
H  H39  1  0.81110000  0.76340000  0.34450000  1.0 0.1318331424
H  H40  1  0.18890000  0.23660000  0.84450000  1.0 0.1388971814
H  H41  1  0.85810000  0.86370000  0.67210000  1.0 0.1388971814
H  H42  1  0.14190000  0.13630000  0.17210000  1.0 0.1388971814
H  H43  1  0.63630000  0.35810000  0.92210000  1.0 0.1388971814
H  H44  1  0.36370000  0.64190000  0.42210000  1.0 0.1388971814
H  H45  1  0.64190000  0.36370000  0.57790000  1.0 0.1388971814
H  H46  1  0.35810000  0.63630000  0.07790000  1.0 0.1388971814
H  H47  1  0.86370000  0.85810000  0.32790000  1.0 0.1388971814
H  H48  1  0.13630000  0.14190000  0.82790000  1.0 0.1388971814
H  H49  1  0.74520000  0.97320000  0.72150000  1.0 0.1388971814
H  H50  1  0.25480000  0.02680000  0.22150000  1.0 0.1388971814
H  H51  1  0.52680000  0.24520000  0.97150000  1.0 0.1388971814
H  H52  1  0.47320000  0.75480000  0.47150000  1.0 0.1388971814
H  H53  1  0.75480000  0.47320000  0.52850000  1.0 0.1388971814
H  H54  1  0.24520000  0.52680000  0.02850000  1.0 0.1388971814
H  H55  1  0.97320000  0.74520000  0.27850000  1.0 0.1388971814
H  H56  1  0.02680000  0.25480000  0.77850000  1.0 0.1388971814
H  H57  1  0.64830000  0.94030000  0.69990000  1.0 0.1318331424
H  H58  1  0.35170000  0.05970000  0.19990000  1.0 0.1318331424
H  H59  1  0.55970000  0.14830000  0.94990000  1.0 0.1318331424
H  H60  1  0.44030000  0.85170000  0.44990000  1.0 0.1318331424
H  H61  1  0.85170000  0.44030000  0.55010000  1.0 0.1318331424
H  H62  1  0.14830000  0.55970000  0.05010000  1.0 0.1318331424
H  H63  1  0.94030000  0.64830000  0.30010000  1.0 0.1318331424
H  H64  1  0.05970000  0.35170000  0.80010000  1.0 0.1318331424
H  H65  1  0.34600000  0.88300000  0.68360000  1.0 0.1318331424
H  H66  1  0.65400000  0.11700000  0.18360000  1.0 0.1318331424
H  H67  1  0.61700000  0.84600000  0.93360000  1.0 0.1318331424
H  H68  1  0.38300000  0.15400000  0.43360000  1.0 0.1318331424
H  H69  1  0.15400000  0.38300000  0.56640000  1.0 0.1318331424
H  H70  1  0.84600000  0.61700000  0.06640000  1.0 0.1318331424
H  H71  1  0.88300000  0.34600000  0.31640000  1.0 0.1318331424
H  H72  1  0.11700000  0.65400000  0.81640000  1.0 0.1318331424
H  H73  1  0.23370000  0.90290000  0.69720000  1.0 0.1388971814
H  H74  1  0.76630000  0.09710000  0.19720000  1.0 0.1388971814
H  H75  1  0.59710000  0.73370000  0.94720000  1.0 0.1388971814
H  H76  1  0.40290000  0.26630000  0.44720000  1.0 0.1388971814
H  H77  1  0.26630000  0.40290000  0.55280000  1.0 0.1388971814
H  H78  1  0.73370000  0.59710000  0.05280000  1.0 0.1388971814
H  H79  1  0.90290000  0.23370000  0.30280000  1.0 0.1388971814
H  H80  1  0.09710000  0.76630000  0.80280000  1.0 0.1388971814
H  H81  1  0.29820000  0.98240000  0.76540000  1.0 0.1388971814
H  H82  1  0.70180000  0.01760000  0.26540000  1.0 0.1388971814
H  H83  1  0.51760000  0.79820000  0.01540000  1.0 0.1388971814
H  H84  1  0.48240000  0.20180000  0.51540000  1.0 0.1388971814
H  H85  1  0.20180000  0.48240000  0.48460000  1.0 0.1388971814
H  H86  1  0.79820000  0.51760000  0.98460000  1.0 0.1388971814
H  H87  1  0.98240000  0.29820000  0.23460000  1.0 0.1388971814
H  H88  1  0.01760000  0.70180000  0.73460000  1.0 0.1388971814
H  H89  1  0.40770000  0.95810000  0.75370000  1.0 0.1318331424
H  H90  1  0.59230000  0.04190000  0.25370000  1.0 0.1318331424
H  H91  1  0.54190000  0.90770000  0.00370000  1.0 0.1318331424
H  H92  1  0.45810000  0.09230000  0.50370000  1.0 0.1318331424
H  H93  1  0.09230000  0.45810000  0.49630000  1.0 0.1318331424
H  H94  1  0.90770000  0.54190000  0.99630000  1.0 0.1318331424
H  H95  1  0.95810000  0.40770000  0.24630000  1.0 0.1318331424
H  H96  1  0.04190000  0.59230000  0.74630000  1.0 0.1318331424
H  H97  1  0.65160000  0.81970000  0.64810000  1.0 0.2952915921
H  H98  1  0.34840000  0.18030000  0.14810000  1.0 0.2952915921
H  H99  1  0.68030000  0.15160000  0.89810000  1.0 0.2952915921
H  H100  1  0.31970000  0.84840000  0.39810000  1.0 0.2952915921
H  H101  1  0.84840000  0.31970000  0.60190000  1.0 0.2952915921
H  H102  1  0.15160000  0.68030000  0.10190000  1.0 0.2952915921
H  H103  1  0.81970000  0.65160000  0.35190000  1.0 0.2952915921
H  H104  1  0.18030000  0.34840000  0.85190000  1.0 0.2952915921
H  H105  1  0.48390000  0.93120000  0.72070000  1.0 0.2952915921
H  H106  1  0.51610000  0.06880000  0.22070000  1.0 0.2919370015
H  H107  1  0.56880000  0.98390000  0.97070000  1.0 0.2919370015
H  H108  1  0.43120000  0.01610000  0.47070000  1.0 0.2919370015
H  H109  1  0.01610000  0.43120000  0.52930000  1.0 0.2919370015
H  H110  1  0.98390000  0.56880000  0.02930000  1.0 0.2952915921
H  H111  1  0.93120000  0.48390000  0.27930000  1.0 0.2952915921
H  H112  1  0.06880000  0.51610000  0.77930000  1.0 0.2919370015
H  H113  1  0.39140000  0.75790000  0.64690000  1.0 0.2919370015
H  H114  1  0.60860000  0.24210000  0.14690000  1.0 0.2919370015
H  H115  1  0.74210000  0.89140000  0.89690000  1.0 0.2919370015
H  H116  1  0.25790000  0.10860000  0.39690000  1.0 0.2919370015
H  H117  1  0.10860000  0.25790000  0.60310000  1.0 0.2919370015
H  H118  1  0.89140000  0.74210000  0.10310000  1.0 0.2919370015
H  H119  1  0.75790000  0.39140000  0.35310000  1.0 0.2919370015
H  H120  1  0.24210000  0.60860000  0.85310000  1.0 0.2919370015
C  C1  1  0.48780000  0.57510000  0.55702000  1.0 0.5882684297
C  C2  1  0.51220000  0.42490000  0.05702000  1.0 0.5882684297
C  C3  1  0.92490000  0.98780000  0.80702000  1.0 0.5882684297
C  C4  1  0.07510000  0.01220000  0.30702000  1.0 0.5882684297
C  C5  1  0.01220000  0.07510000  0.69298000  1.0 0.5882684297
C  C6  1  0.98780000  0.92490000  0.19298000  1.0 0.5882684297
C  C7  1  0.57510000  0.48780000  0.44298000  1.0 0.5882684297
C  C8  1  0.42490000  0.51220000  0.94298000  1.0 0.5882684297
C  C9  1  0.47510000  0.62290000  0.57992000  1.0 -0.0611510962
C  C10  1  0.52490000  0.37710000  0.07992000  1.0 -0.0611510962
C  C11  1  0.87710000  0.97510000  0.82992000  1.0 -0.0611510962
C  C12  1  0.12290000  0.02490000  0.32992000  1.0 -0.0611510962
C  C13  1  0.02490000  0.12290000  0.67008000  1.0 -0.0611510962
C  C14  1  0.97510000  0.87710000  0.17008000  1.0 -0.0611510962
C  C15  1  0.62290000  0.47510000  0.42008000  1.0 -0.0611510962
C  C16  1  0.37710000  0.52490000  0.92008000  1.0 -0.0611510962
C  C17  1  0.42170000  0.61100000  0.59749000  1.0 -0.0611510962
C  C18  1  0.57830000  0.38900000  0.09749000  1.0 -0.0611510962
C  C19  1  0.88900000  0.92170000  0.84749000  1.0 -0.0611510962
C  C20  1  0.11100000  0.07830000  0.34749000  1.0 -0.0611510962
C  C21  1  0.07830000  0.11100000  0.65251000  1.0 -0.0611510962
C  C22  1  0.92170000  0.88900000  0.15251000  1.0 -0.0611510962
C  C23  1  0.61100000  0.42170000  0.40251000  1.0 -0.0611510962
C  C24  1  0.38900000  0.57830000  0.90251000  1.0 -0.0611510962
C  C25  1  0.40890000  0.65660000  0.61809000  1.0 -0.1986088215
C  C26  1  0.59110000  0.34340000  0.11809000  1.0 -0.1986088215
C  C27  1  0.84340000  0.90890000  0.86809000  1.0 -0.1986088215
C  C28  1  0.15660000  0.09110000  0.36809000  1.0 -0.1986088215
C  C29  1  0.09110000  0.15660000  0.63191000  1.0 -0.1986088215
C  C30  1  0.90890000  0.84340000  0.13191000  1.0 -0.1986088215
C  C31  1  0.65660000  0.40890000  0.38191000  1.0 -0.1986088215
C  C32  1  0.34340000  0.59110000  0.88191000  1.0 -0.1986088215
C  C33  1  0.44860000  0.71120000  0.62080000  1.0 0.1855818648
C  C34  1  0.55140000  0.28880000  0.12080000  1.0 0.1847318902
C  C35  1  0.78880000  0.94860000  0.87080000  1.0 0.1855818648
C  C36  1  0.21120000  0.05140000  0.37080000  1.0 0.1847318902
C  C37  1  0.05140000  0.21120000  0.62920000  1.0 0.1855818648
C  C38  1  0.94860000  0.78880000  0.12920000  1.0 0.1855818648
C  C39  1  0.71120000  0.44860000  0.37920000  1.0 0.1855818648
C  C40  1  0.28880000  0.55140000  0.87920000  1.0 0.1855818648
C  C41  1  0.49990000  0.72500000  0.60288000  1.0 -0.1687809911
C  C42  1  0.50010000  0.27500000  0.10288000  1.0 -0.1687809911
C  C43  1  0.77500000  0.99990000  0.85288000  1.0 -0.1687809911
C  C44  1  0.22500000  0.00010000  0.35288000  1.0 -0.1687809911
C  C45  1  0.00010000  0.22500000  0.64712000  1.0 -0.1687809911
C  C46  1  0.99990000  0.77500000  0.14712000  1.0 -0.1687809911
C  C47  1  0.72500000  0.49990000  0.39712000  1.0 -0.1687809911
C  C48  1  0.27500000  0.50010000  0.89712000  1.0 -0.1687809911
C  C49  1  0.51140000  0.68180000  0.58277000  1.0 -0.0688141652
C  C50  1  0.48860000  0.31820000  0.08277000  1.0 -0.0688141652
C  C51  1  0.81820000  0.01140000  0.83277000  1.0 -0.0688141652
C  C52  1  0.18180000  0.98860000  0.33277000  1.0 -0.0688141652
C  C53  1  0.98860000  0.18180000  0.66723000  1.0 -0.0688141652
C  C54  1  0.01140000  0.81820000  0.16723000  1.0 -0.0688141652
C  C55  1  0.68180000  0.51140000  0.41723000  1.0 -0.0688141652
C  C56  1  0.31820000  0.48860000  0.91723000  1.0 -0.0688141652
C  C57  1  0.47510000  0.79650000  0.65758000  1.0 0.509756644
C  C58  1  0.52490000  0.20350000  0.15758000  1.0 0.509756644
C  C59  1  0.70350000  0.97510000  0.90758000  1.0 0.509756644
C  C60  1  0.29650000  0.02490000  0.40758000  1.0 0.509756644
C  C61  1  0.02490000  0.29650000  0.59242000  1.0 0.509756644
C  C62  1  0.97510000  0.70350000  0.09242000  1.0 0.509756644
C  C63  1  0.79650000  0.47510000  0.34242000  1.0 0.509756644
C  C64  1  0.20350000  0.52490000  0.84242000  1.0 0.509756644
C  C65  1  0.57410000  0.83770000  0.66917000  1.0 0.503966023
C  C66  1  0.42590000  0.16230000  0.16917000  1.0 0.503966023
C  C67  1  0.66230000  0.07410000  0.91917000  1.0 0.503966023
C  C68  1  0.33770000  0.92590000  0.41917000  1.0 0.503966023
C  C69  1  0.92590000  0.33770000  0.58083000  1.0 0.503966023
C  C70  1  0.07410000  0.66230000  0.08083000  1.0 0.503966023
C  C71  1  0.83770000  0.57410000  0.33083000  1.0 0.503966023
C  C72  1  0.16230000  0.42590000  0.83083000  1.0 0.503966023
C  C73  1  0.48360000  0.86900000  0.69119000  1.0 0.503966023
C  C74  1  0.51640000  0.13100000  0.19119000  1.0 0.503966023
C  C75  1  0.63100000  0.98360000  0.94119000  1.0 0.503966023
C  C76  1  0.36900000  0.01640000  0.44119000  1.0 0.503966023
C  C77  1  0.01640000  0.36900000  0.55881000  1.0 0.503966023
C  C78  1  0.98360000  0.63100000  0.05881000  1.0 0.503966023
C  C79  1  0.86900000  0.48360000  0.30881000  1.0 0.503966023
C  C80  1  0.13100000  0.51640000  0.80881000  1.0 0.503966023
C  C81  1  0.69650000  0.86950000  0.67589000  1.0 0.2128336548
C  C82  1  0.30350000  0.13050000  0.17589000  1.0 0.2128336548
C  C83  1  0.63050000  0.19650000  0.92589000  1.0 0.2128336548
C  C84  1  0.36950000  0.80350000  0.42589000  1.0 0.2128336548
C  C85  1  0.80350000  0.36950000  0.57411000  1.0 0.2128336548
C  C86  1  0.19650000  0.63050000  0.07411000  1.0 0.2128336548
C  C87  1  0.86950000  0.69650000  0.32411000  1.0 0.2128336548
C  C88  1  0.13050000  0.30350000  0.82411000  1.0 0.2128336548
C  C89  1  0.75930000  0.84650000  0.66814000  1.0 -0.1986088215
C  C90  1  0.24070000  0.15350000  0.16814000  1.0 -0.1986088215
C  C91  1  0.65350000  0.25930000  0.91814000  1.0 -0.1986088215
C  C92  1  0.34650000  0.74070000  0.41814000  1.0 -0.1986088215
C  C93  1  0.74070000  0.34650000  0.58186000  1.0 -0.1986088215
C  C94  1  0.25930000  0.65350000  0.08186000  1.0 -0.1986088215
C  C95  1  0.84650000  0.75930000  0.33186000  1.0 -0.1986088215
C  C96  1  0.15350000  0.24070000  0.83186000  1.0 -0.1986088215
C  C97  1  0.81520000  0.87540000  0.67889000  1.0 -0.0611510962
C  C98  1  0.18480000  0.12460000  0.17889000  1.0 -0.0611510962
C  C99  1  0.62460000  0.31520000  0.92889000  1.0 -0.0611510962
C  C100  1  0.37540000  0.68480000  0.42889000  1.0 -0.0611510962
C  C101  1  0.68480000  0.37540000  0.57111000  1.0 -0.0611510962
C  C102  1  0.31520000  0.62460000  0.07111000  1.0 -0.0611510962
C  C103  1  0.87540000  0.81520000  0.32111000  1.0 -0.0611510962
C  C104  1  0.12460000  0.18480000  0.82111000  1.0 -0.0611510962
C  C105  1  0.81020000  0.92360000  0.70034000  1.0 -0.0611510962
C  C106  1  0.18980000  0.07640000  0.20034000  1.0 -0.0611510962
C  C107  1  0.57640000  0.31020000  0.95034000  1.0 -0.0611510962
C  C108  1  0.42360000  0.68980000  0.45034000  1.0 -0.0611510962
C  C109  1  0.68980000  0.42360000  0.54966000  1.0 -0.0611510962
C  C110  1  0.31020000  0.57640000  0.04966000  1.0 -0.0611510962
C  C111  1  0.92360000  0.81020000  0.29966000  1.0 -0.0611510962
C  C112  1  0.07640000  0.18980000  0.79966000  1.0 -0.0611510962
C  C113  1  0.74910000  0.94240000  0.70717000  1.0 -0.0688141652
C  C114  1  0.25090000  0.05760000  0.20717000  1.0 -0.0688141652
C  C115  1  0.55760000  0.24910000  0.95717000  1.0 -0.0688141652
C  C116  1  0.44240000  0.75090000  0.45717000  1.0 -0.0688141652
C  C117  1  0.75090000  0.44240000  0.54283000  1.0 -0.0688141652
C  C118  1  0.24910000  0.55760000  0.04283000  1.0 -0.0688141652
C  C119  1  0.94240000  0.74910000  0.29283000  1.0 -0.0688141652
C  C120  1  0.05760000  0.25090000  0.79283000  1.0 -0.0688141652
C  C121  1  0.69050000  0.92130000  0.69536000  1.0 -0.161207435
C  C122  1  0.30950000  0.07870000  0.19536000  1.0 -0.161207435
C  C123  1  0.57870000  0.19050000  0.94536000  1.0 -0.161207435
C  C124  1  0.42130000  0.80950000  0.44536000  1.0 -0.161207435
C  C125  1  0.80950000  0.42130000  0.55464000  1.0 -0.161207435
C  C126  1  0.19050000  0.57870000  0.05464000  1.0 -0.161207435
C  C127  1  0.92130000  0.69050000  0.30464000  1.0 -0.161207435
C  C128  1  0.07870000  0.30950000  0.80464000  1.0 -0.161207435
C  C129  1  0.38810000  0.91890000  0.71752000  1.0 0.2128336548
C  C130  1  0.61190000  0.08110000  0.21752000  1.0 0.2128336548
C  C131  1  0.58110000  0.88810000  0.96752000  1.0 0.2128336548
C  C132  1  0.41890000  0.11190000  0.46752000  1.0 0.2128336548
C  C133  1  0.11190000  0.41890000  0.53248000  1.0 0.2128336548
C  C134  1  0.88810000  0.58110000  0.03248000  1.0 0.2128336548
C  C135  1  0.91890000  0.38810000  0.28248000  1.0 0.2128336548
C  C136  1  0.08110000  0.61190000  0.78248000  1.0 0.2128336548
C  C137  1  0.33690000  0.90180000  0.70058000  1.0 -0.1800656833
C  C138  1  0.66310000  0.09820000  0.20058000  1.0 -0.1800656833
C  C139  1  0.59820000  0.83690000  0.95058000  1.0 -0.1800656833
C  C140  1  0.40180000  0.16310000  0.45058000  1.0 -0.1800656833
C  C141  1  0.16310000  0.40180000  0.54942000  1.0 -0.1800656833
C  C142  1  0.83690000  0.59820000  0.04942000  1.0 -0.1800656833
C  C143  1  0.90180000  0.33690000  0.29942000  1.0 -0.1800656833
C  C144  1  0.09820000  0.66310000  0.79942000  1.0 -0.1800656833
C  C145  1  0.26930000  0.91300000  0.70920000  1.0 -0.0688141652
C  C146  1  0.73070000  0.08700000  0.20920000  1.0 -0.0688141652
C  C147  1  0.58700000  0.76930000  0.95920000  1.0 -0.0688141652
C  C148  1  0.41300000  0.23070000  0.45920000  1.0 -0.0688141652
C  C149  1  0.23070000  0.41300000  0.54080000  1.0 -0.0688141652
C  C150  1  0.76930000  0.58700000  0.04080000  1.0 -0.0688141652
C  C151  1  0.91300000  0.26930000  0.29080000  1.0 -0.0688141652
C  C152  1  0.08700000  0.73070000  0.79080000  1.0 -0.0688141652
C  C153  1  0.25370000  0.93730000  0.73382000  1.0 -0.0611510962
C  C154  1  0.74630000  0.06270000  0.23382000  1.0 -0.0611510962
C  C155  1  0.56270000  0.75370000  0.98382000  1.0 -0.0611510962
C  C156  1  0.43730000  0.24630000  0.48382000  1.0 -0.0611510962
C  C157  1  0.24630000  0.43730000  0.51618000  1.0 -0.0611510962
C  C158  1  0.75370000  0.56270000  0.01618000  1.0 -0.0611510962
C  C159  1  0.93730000  0.25370000  0.26618000  1.0 -0.0611510962
C  C160  1  0.06270000  0.74630000  0.76618000  1.0 -0.0611510962
C  C161  1  0.30690000  0.95890000  0.74931000  1.0 -0.0611510962
C  C162  1  0.69310000  0.04110000  0.24931000  1.0 -0.0611510962
C  C163  1  0.54110000  0.80690000  0.99931000  1.0 -0.0611510962
C  C164  1  0.45890000  0.19310000  0.49931000  1.0 -0.0611510962
C  C165  1  0.19310000  0.45890000  0.50069000  1.0 -0.0611510962
C  C166  1  0.80690000  0.54110000  0.00069000  1.0 -0.0611510962
C  C167  1  0.95890000  0.30690000  0.25069000  1.0 -0.0611510962
C  C168  1  0.04110000  0.69310000  0.75069000  1.0 -0.0611510962
C  C169  1  0.37250000  0.94680000  0.74179000  1.0 -0.211466714
C  C170  1  0.62750000  0.05320000  0.24179000  1.0 -0.211466714
C  C171  1  0.55320000  0.87250000  0.99179000  1.0 -0.211466714
C  C172  1  0.44680000  0.12750000  0.49179000  1.0 -0.211466714
C  C173  1  0.12750000  0.44680000  0.50821000  1.0 -0.211466714
C  C174  1  0.87250000  0.55320000  0.00821000  1.0 -0.211466714
C  C175  1  0.94680000  0.37250000  0.25821000  1.0 -0.211466714
C  C176  1  0.05320000  0.62750000  0.75821000  1.0 -0.211466714
C  C177  1  0.87280000  0.94940000  0.71359000  1.0 0.5882684297
C  C178  1  0.12720000  0.05060000  0.21359000  1.0 0.5882684297
C  C179  1  0.55060000  0.37280000  0.96359000  1.0 0.5882684297
C  C180  1  0.44940000  0.62720000  0.46359000  1.0 0.5882684297
C  C181  1  0.62720000  0.44940000  0.53641000  1.0 0.5882684297
C  C182  1  0.37280000  0.55060000  0.03641000  1.0 0.5882684297
C  C183  1  0.94940000  0.87280000  0.28641000  1.0 0.5882684297
C  C184  1  0.05060000  0.12720000  0.78641000  1.0 0.5882684297
C  C185  1  0.18080000  0.94750000  0.74076000  1.0 0.5687934055
C  C186  1  0.81920000  0.05250000  0.24076000  1.0 0.5687934055
C  C187  1  0.55250000  0.68080000  0.99076000  1.0 0.5687934055
C  C188  1  0.44750000  0.31920000  0.49076000  1.0 0.5687934055
C  C189  1  0.31920000  0.44750000  0.50924000  1.0 0.5687934055
C  C190  1  0.68080000  0.55250000  0.00924000  1.0 0.5687934055
C  C191  1  0.94750000  0.18080000  0.25924000  1.0 0.5687934055
C  C192  1  0.05250000  0.81920000  0.75924000  1.0 0.5687934055
N  N1  1  0.53840000  0.79560000  0.65253000  1.0 -0.4882318501
N  N2  1  0.46160000  0.20440000  0.15253000  1.0 -0.4882318501
N  N3  1  0.70440000  0.03840000  0.90253000  1.0 -0.4882318501
N  N4  1  0.29560000  0.96160000  0.40253000  1.0 -0.4882318501
N  N5  1  0.96160000  0.29560000  0.59747000  1.0 -0.4882318501
N  N6  1  0.03840000  0.70440000  0.09747000  1.0 -0.4882318501
N  N7  1  0.79560000  0.53840000  0.34747000  1.0 -0.4882318501
N  N8  1  0.20440000  0.46160000  0.84747000  1.0 -0.4882318501
N  N9  1  0.54980000  0.87690000  0.68775000  1.0 -0.4766190008
N  N10  1  0.45020000  0.12310000  0.18775000  1.0 -0.4766190008
N  N11  1  0.62310000  0.04980000  0.93775000  1.0 -0.4766190008
N  N12  1  0.37690000  0.95020000  0.43775000  1.0 -0.4766190008
N  N13  1  0.95020000  0.37690000  0.56225000  1.0 -0.4766190008
N  N14  1  0.04980000  0.62310000  0.06225000  1.0 -0.4766190008
N  N15  1  0.87690000  0.54980000  0.31225000  1.0 -0.4766190008
N  N16  1  0.12310000  0.45020000  0.81225000  1.0 -0.4766190008
N  N17  1  0.44130000  0.83170000  0.67616000  1.0 -0.4990797346
N  N18  1  0.55870000  0.16830000  0.17616000  1.0 -0.4990797346
N  N19  1  0.66830000  0.94130000  0.92616000  1.0 -0.4990797346
N  N20  1  0.33170000  0.05870000  0.42616000  1.0 -0.4990797346
N  N21  1  0.05870000  0.33170000  0.57384000  1.0 -0.4990797346
N  N22  1  0.94130000  0.66830000  0.07384000  1.0 -0.4990797346
N  N23  1  0.83170000  0.44130000  0.32384000  1.0 -0.4990797346
N  N24  1  0.16830000  0.55870000  0.82384000  1.0 -0.4990797346
N  N25  1  0.64130000  0.84030000  0.66300000  1.0 -0.336793159
N  N26  1  0.35870000  0.15970000  0.16300000  1.0 -0.336793159
N  N27  1  0.65970000  0.14130000  0.91300000  1.0 -0.336793159
N  N28  1  0.34030000  0.85870000  0.41300000  1.0 -0.336793159
N  N29  1  0.85870000  0.34030000  0.58700000  1.0 -0.336793159
N  N30  1  0.14130000  0.65970000  0.08700000  1.0 -0.3347952173
N  N31  1  0.84030000  0.64130000  0.33700000  1.0 -0.336793159
N  N32  1  0.15970000  0.35870000  0.83700000  1.0 -0.336793159
N  N33  1  0.45504000  0.90890000  0.71090000  1.0 -0.336793159
N  N34  1  0.54496000  0.09110000  0.21090000  1.0 -0.336793159
N  N35  1  0.59110000  0.95504000  0.96090000  1.0 -0.336793159
N  N36  1  0.40890000  0.04496000  0.46090000  1.0 -0.336793159
N  N37  1  0.04496000  0.40890000  0.53910000  1.0 -0.336793159
N  N38  1  0.95504000  0.59110000  0.03910000  1.0 -0.336793159
N  N39  1  0.90890000  0.45504000  0.28910000  1.0 -0.336793159
N  N40  1  0.09110000  0.54496000  0.78910000  1.0 -0.336793159
N  N41  1  0.43410000  0.75600000  0.64249000  1.0 -0.3555072949
N  N42  1  0.56590000  0.24400000  0.14249000  1.0 -0.3555072949
N  N43  1  0.74400000  0.93410000  0.89249000  1.0 -0.3555072949
N  N44  1  0.25600000  0.06590000  0.39249000  1.0 -0.3555072949
N  N45  1  0.06590000  0.25600000  0.60751000  1.0 -0.3555072949
N  N46  1  0.93410000  0.74400000  0.10751000  1.0 -0.3545592532
N  N47  1  0.75600000  0.43410000  0.35751000  1.0 -0.3555072949
N  N48  1  0.24400000  0.56590000  0.85751000  1.0 -0.3555072949
O  O1  1  0.52855000  0.59428000  0.53934000  1.0 -0.5170147822
O  O2  1  0.47145000  0.40572000  0.03934000  1.0 -0.5170147822
O  O3  1  0.90572000  0.02855000  0.78934000  1.0 -0.5170147822
O  O4  1  0.09428000  0.97145000  0.28934000  1.0 -0.5170147822
O  O5  1  0.97145000  0.09428000  0.71066000  1.0 -0.5170147822
O  O6  1  0.02855000  0.90572000  0.21066000  1.0 -0.5170147822
O  O7  1  0.59428000  0.52855000  0.46066000  1.0 -0.5170147822
O  O8  1  0.40572000  0.47145000  0.96066000  1.0 -0.5170147822
O  O9  1  0.45794000  0.51910000  0.55819000  1.0 -0.4990797346
O  O10  1  0.54206000  0.48090000  0.05819000  1.0 -0.4990797346
O  O11  1  0.98090000  0.95794000  0.80819000  1.0 -0.4990797346
O  O12  1  0.01910000  0.04206000  0.30819000  1.0 -0.4990797346
O  O13  1  0.04206000  0.01910000  0.69181000  1.0 -0.4990797346
O  O14  1  0.95794000  0.98090000  0.19181000  1.0 -0.4990797346
O  O15  1  0.51910000  0.45794000  0.44181000  1.0 -0.4990797346
O  O16  1  0.48090000  0.54206000  0.94181000  1.0 -0.4990797346
O  O17  1  0.92836000  0.92368000  0.70539000  1.0 -0.5170147822
O  O18  1  0.07164000  0.07632000  0.20539000  1.0 -0.5170147822
O  O19  1  0.57632000  0.42836000  0.95539000  1.0 -0.5170147822
O  O20  1  0.42368000  0.57164000  0.45539000  1.0 -0.5170147822
O  O21  1  0.57164000  0.42368000  0.54461000  1.0 -0.5170147822
O  O22  1  0.42836000  0.57632000  0.04461000  1.0 -0.5170147822
O  O23  1  0.92368000  0.92836000  0.29461000  1.0 -0.5170147822
O  O24  1  0.07632000  0.07164000  0.79461000  1.0 -0.5170147822
O  O25  1  0.86615000  0.99307000  0.73118000  1.0 -0.4990797346
O  O26  1  0.13385000  0.00693000  0.23118000  1.0 -0.4990797346
O  O27  1  0.50693000  0.36615000  0.98118000  1.0 -0.4990797346
O  O28  1  0.49307000  0.63385000  0.48118000  1.0 -0.4990797346
O  O29  1  0.63385000  0.49307000  0.51882000  1.0 -0.4990797346
O  O30  1  0.36615000  0.50693000  0.01882000  1.0 -0.4990797346
O  O31  1  0.99307000  0.86615000  0.26882000  1.0 -0.4990797346
O  O32  1  0.00693000  0.13385000  0.76882000  1.0 -0.4990797346
O  O33  1  0.16799000  0.97092000  0.76312000  1.0 -0.4698889845
O  O34  1  0.83201000  0.02908000  0.26312000  1.0 -0.4698889845
O  O35  1  0.52908000  0.66799000  0.01312000  1.0 -0.4698889845
O  O36  1  0.47092000  0.33201000  0.51312000  1.0 -0.4698889845
O  O37  1  0.33201000  0.47092000  0.48688000  1.0 -0.4698889845
O  O38  1  0.66799000  0.52908000  0.98688000  1.0 -0.4698889845
O  O39  1  0.97092000  0.16799000  0.23688000  1.0 -0.4698889845
O  O40  1  0.02908000  0.83201000  0.73688000  1.0 -0.4698889845
O  O41  1  0.14009000  0.93025000  0.72366000  1.0 -0.4882318501
O  O42  1  0.85991000  0.06975000  0.22366000  1.0 -0.4882318501
O  O43  1  0.56975000  0.64009000  0.97366000  1.0 -0.4882318501
O  O44  1  0.43025000  0.35991000  0.47366000  1.0 -0.4882318501
O  O45  1  0.35991000  0.43025000  0.52634000  1.0 -0.4882318501
O  O46  1  0.64009000  0.56975000  0.02634000  1.0 -0.4882318501
O  O47  1  0.93025000  0.14009000  0.27634000  1.0 -0.4882318501
O  O48  1  0.06975000  0.85991000  0.77634000  1.0 -0.4882318501
O  O49  1  0.44745000  0.37500000  0.56929000  1.0 -0.6018734307
O  O50  1  0.55255000  0.62500000  0.06929000  1.0 -0.6018734307
O  O51  1  0.12500000  0.94745000  0.81929000  1.0 -0.6018734307
O  O52  1  0.87500000  0.05255000  0.31929000  1.0 -0.6018734307
O  O53  1  0.05255000  0.87500000  0.68071000  1.0 -0.6018734307
O  O54  1  0.94745000  0.12500000  0.18071000  1.0 -0.6018734307
O  O55  1  0.37500000  0.44745000  0.43071000  1.0 -0.6018734307
O  O56  1  0.62500000  0.55255000  0.93071000  1.0 -0.6018734307
O  O57  1  0.64052000  0.64052000  0.50000000  1.0 -0.5758332119
O  O58  1  0.35948000  0.35948000  0.00000000  1.0 -0.5758332119
O  O59  1  0.85948000  0.14052000  0.75000000  1.0 -0.5758332119
O  O60  1  0.14052000  0.85948000  0.25000000  1.0 -0.5758332119
O  O61  1  0.48594000  0.48594000  0.50000000  1.0 -1.0890072987
O  O62  1  0.51406000  0.51406000  0.00000000  1.0 -1.0890072987
O  O63  1  0.01406000  0.98594000  0.75000000  1.0 -1.0890072987
O  O64  1  0.98594000  0.01406000  0.25000000  1.0 -1.0890072987
