# DDEC6 charges by PACMAN v1.1 (https://github.com/mtap-research/PACMAN-charge/)
data_d0ra05145d2_4_ASR_pacman
_symmetry_space_group_name_H-M   'P 1'
_cell_length_a   12.42030000
_cell_length_b   22.33300000
_cell_length_c   28.08200000
_cell_angle_alpha   90.00000000
_cell_angle_beta   90.00000000
_cell_angle_gamma   90.00000000
_symmetry_Int_Tables_number   1
_chemical_formula_structural   Ca2H16C29O8
_chemical_formula_sum   'Ca16 H128 C232 O64'
_cell_volume   7789.45704711
_cell_formula_units_Z   8
loop_
 _symmetry_equiv_pos_site_id
 _symmetry_equiv_pos_as_xyz
  1  'x, y, z'
loop_
 _atom_site_type_symbol
 _atom_site_label
 _atom_site_symmetry_multiplicity
 _atom_site_fract_x
 _atom_site_fract_y
 _atom_site_fract_z
 _atom_site_occupancy
 _atom_site_charge
Ca  Ca1  1  0.22961000  0.25213000  0.13303000  1.0 1.4308955251
Ca  Ca2  1  0.77039000  0.74787000  0.63303000  1.0 1.4308955251
Ca  Ca3  1  0.27039000  0.25213000  0.63303000  1.0 1.4308955251
Ca  Ca4  1  0.72961000  0.74787000  0.13303000  1.0 1.4308955251
Ca  Ca5  1  0.75165000  0.66431000  0.00097000  1.0 1.3158911048
Ca  Ca6  1  0.24835000  0.33569000  0.50097000  1.0 1.3158911048
Ca  Ca7  1  0.74835000  0.66431000  0.50097000  1.0 1.3158911048
Ca  Ca8  1  0.25165000  0.33569000  0.00097000  1.0 1.3158911048
Ca  Ca9  1  0.27779000  0.25409000  0.87009000  1.0 1.388790953
Ca  Ca10  1  0.72221000  0.74591000  0.37009000  1.0 1.3844340919
Ca  Ca11  1  0.22221000  0.25409000  0.37009000  1.0 1.388790953
Ca  Ca12  1  0.77779000  0.74591000  0.87009000  1.0 1.388790953
Ca  Ca13  1  0.29809000  0.17097000  0.74924000  1.0 1.3100622176
Ca  Ca14  1  0.70191000  0.82903000  0.24924000  1.0 1.3100622176
Ca  Ca15  1  0.20191000  0.17097000  0.24924000  1.0 1.3100622176
Ca  Ca16  1  0.79809000  0.82903000  0.74924000  1.0 1.3100622176
H  H1  1  0.41131000  0.01038000  0.86148000  1.0 0.1186409689
H  H2  1  0.58869000  0.98962000  0.36148000  1.0 0.1186409689
H  H3  1  0.08869000  0.01038000  0.36148000  1.0 0.1186409689
H  H4  1  0.91131000  0.98962000  0.86148000  1.0 0.1186409689
H  H5  1  0.37929000  0.94235000  0.92146000  1.0 0.1123566465
H  H6  1  0.62071000  0.05765000  0.42146000  1.0 0.1186409689
H  H7  1  0.12071000  0.94235000  0.42146000  1.0 0.1186409689
H  H8  1  0.87929000  0.05765000  0.92146000  1.0 0.1186409689
H  H9  1  0.14684000  0.04537000  0.97449000  1.0 0.1186409689
H  H10  1  0.85316000  0.95463000  0.47449000  1.0 0.1186409689
H  H11  1  0.35316000  0.04537000  0.47449000  1.0 0.1186409689
H  H12  1  0.64684000  0.95463000  0.97449000  1.0 0.1186409689
H  H13  1  0.16579000  0.11194000  0.91013000  1.0 0.1186409689
H  H14  1  0.83421000  0.88806000  0.41013000  1.0 0.1186409689
H  H15  1  0.33421000  0.11194000  0.41013000  1.0 0.1186409689
H  H16  1  0.66579000  0.88806000  0.91013000  1.0 0.1186409689
H  H17  1  0.07661000  0.94669000  0.93910000  1.0 0.1186409689
H  H18  1  0.92339000  0.05331000  0.43910000  1.0 0.1186409689
H  H19  1  0.42339000  0.94669000  0.43910000  1.0 0.1186409689
H  H20  1  0.57661000  0.05331000  0.93910000  1.0 0.1186409689
H  H21  1  0.93707000  0.87813000  0.93314000  1.0 0.1186409689
H  H22  1  0.06293000  0.12187000  0.43314000  1.0 0.1186409689
H  H23  1  0.56293000  0.87813000  0.43314000  1.0 0.1186409689
H  H24  1  0.43707000  0.12187000  0.93314000  1.0 0.1186409689
H  H25  1  0.06320000  0.78108000  0.03799000  1.0 0.1268889568
H  H26  1  0.93680000  0.21892000  0.53799000  1.0 0.1268889568
H  H27  1  0.43680000  0.78108000  0.53799000  1.0 0.1268889568
H  H28  1  0.56320000  0.21892000  0.03799000  1.0 0.1268889568
H  H29  1  0.19314000  0.84838000  0.04782000  1.0 0.1186409689
H  H30  1  0.80686000  0.15162000  0.54782000  1.0 0.1186409689
H  H31  1  0.30686000  0.84838000  0.54782000  1.0 0.1186409689
H  H32  1  0.69314000  0.15162000  0.04782000  1.0 0.1186409689
H  H33  1  0.10523000  0.94537000  0.07244000  1.0 0.1123566465
H  H34  1  0.89477000  0.05463000  0.57244000  1.0 0.1123566465
H  H35  1  0.39477000  0.94537000  0.57244000  1.0 0.1123566465
H  H36  1  0.60523000  0.05463000  0.07244000  1.0 0.1123566465
H  H37  1  0.09437000  0.00483000  0.14161000  1.0 0.1186409689
H  H38  1  0.90563000  0.99517000  0.64161000  1.0 0.1186409689
H  H39  1  0.40563000  0.00483000  0.64161000  1.0 0.1186409689
H  H40  1  0.59437000  0.99517000  0.14161000  1.0 0.1186409689
H  H41  1  0.33758000  0.10833000  0.09138000  1.0 0.1186409689
H  H42  1  0.66242000  0.89167000  0.59138000  1.0 0.1186409689
H  H43  1  0.16242000  0.10833000  0.59138000  1.0 0.1186409689
H  H44  1  0.83758000  0.89167000  0.09138000  1.0 0.1186409689
H  H45  1  0.36038000  0.04708000  0.02896000  1.0 0.1186409689
H  H46  1  0.63962000  0.95292000  0.52896000  1.0 0.1186409689
H  H47  1  0.13962000  0.04708000  0.52896000  1.0 0.1186409689
H  H48  1  0.86038000  0.95292000  0.02896000  1.0 0.1186409689
H  H49  1  0.30934000  0.85332000  0.94905000  1.0 0.1123566465
H  H50  1  0.69066000  0.14668000  0.44905000  1.0 0.1123566465
H  H51  1  0.19066000  0.85332000  0.44905000  1.0 0.1123566465
H  H52  1  0.80934000  0.14668000  0.94905000  1.0 0.1123566465
H  H53  1  0.45184000  0.78332000  0.95714000  1.0 0.1268889568
H  H54  1  0.54816000  0.21668000  0.45714000  1.0 0.1268889568
H  H55  1  0.04816000  0.78332000  0.45714000  1.0 0.1268889568
H  H56  1  0.95184000  0.21668000  0.95714000  1.0 0.1268889568
H  H57  1  0.55869000  0.87574000  0.07264000  1.0 0.1123566465
H  H58  1  0.44131000  0.12426000  0.57264000  1.0 0.1123566465
H  H59  1  0.94131000  0.87574000  0.57264000  1.0 0.1123566465
H  H60  1  0.05869000  0.12426000  0.07264000  1.0 0.1123566465
H  H61  1  0.42574000  0.94688000  0.05992000  1.0 0.1123566465
H  H62  1  0.57426000  0.05312000  0.55992000  1.0 0.1123566465
H  H63  1  0.07426000  0.94688000  0.55992000  1.0 0.1123566465
H  H64  1  0.92574000  0.05312000  0.05992000  1.0 0.1123566465
H  H65  1  0.37282000  0.37170000  0.31288000  1.0 0.1123566465
H  H66  1  0.62718000  0.62830000  0.81288000  1.0 0.1123566465
H  H67  1  0.12718000  0.37170000  0.81288000  1.0 0.1123566465
H  H68  1  0.87282000  0.62830000  0.31288000  1.0 0.1123566465
H  H69  1  0.52316000  0.43534000  0.31375000  1.0 0.1186409689
H  H70  1  0.47684000  0.56466000  0.81375000  1.0 0.1123566465
H  H71  1  0.97684000  0.43534000  0.81375000  1.0 0.1186409689
H  H72  1  0.02316000  0.56466000  0.31375000  1.0 0.1186409689
H  H73  1  0.61975000  0.35984000  0.18989000  1.0 0.1186409689
H  H74  1  0.38025000  0.64016000  0.68989000  1.0 0.1186409689
H  H75  1  0.88025000  0.35984000  0.68989000  1.0 0.1186409689
H  H76  1  0.11975000  0.64016000  0.18989000  1.0 0.1186409689
H  H77  1  0.47210000  0.29862000  0.18956000  1.0 0.1186409689
H  H78  1  0.52790000  0.70138000  0.68956000  1.0 0.1186409689
H  H79  1  0.02790000  0.29862000  0.68956000  1.0 0.1186409689
H  H80  1  0.97210000  0.70138000  0.18956000  1.0 0.1186409689
H  H81  1  0.57569000  0.53808000  0.28085000  1.0 0.1186409689
H  H82  1  0.42431000  0.46192000  0.78085000  1.0 0.1186409689
H  H83  1  0.92431000  0.53808000  0.78085000  1.0 0.1186409689
H  H84  1  0.07569000  0.46192000  0.28085000  1.0 0.1186409689
H  H85  1  0.60387000  0.60421000  0.34272000  1.0 0.1186409689
H  H86  1  0.39613000  0.39579000  0.84272000  1.0 0.1186409689
H  H87  1  0.89613000  0.60421000  0.84272000  1.0 0.1186409689
H  H88  1  0.10387000  0.39579000  0.34272000  1.0 0.1186409689
H  H89  1  0.84921000  0.50367000  0.38939000  1.0 0.1268889568
H  H90  1  0.15079000  0.49633000  0.88939000  1.0 0.1268889568
H  H91  1  0.65079000  0.50367000  0.88939000  1.0 0.1268889568
H  H92  1  0.34921000  0.49633000  0.38939000  1.0 0.1268889568
H  H93  1  0.83209000  0.43940000  0.32274000  1.0 0.1123566465
H  H94  1  0.16791000  0.56060000  0.82274000  1.0 0.1123566465
H  H95  1  0.66791000  0.43940000  0.82274000  1.0 0.1123566465
H  H96  1  0.33209000  0.56060000  0.32274000  1.0 0.1123566465
H  H97  1  0.80651000  0.53983000  0.22953000  1.0 0.1123566465
H  H98  1  0.19349000  0.46017000  0.72953000  1.0 0.1123566465
H  H99  1  0.69349000  0.53983000  0.72953000  1.0 0.1123566465
H  H100  1  0.30651000  0.46017000  0.22953000  1.0 0.1123566465
H  H101  1  0.81139000  0.60698000  0.16486000  1.0 0.1123566465
H  H102  1  0.18861000  0.39302000  0.66486000  1.0 0.1123566465
H  H103  1  0.68861000  0.60698000  0.66486000  1.0 0.1123566465
H  H104  1  0.31139000  0.39302000  0.16486000  1.0 0.1123566465
H  H105  1  0.55714000  0.52303000  0.10782000  1.0 0.1268889568
H  H106  1  0.44286000  0.47697000  0.60782000  1.0 0.1268889568
H  H107  1  0.94286000  0.52303000  0.60782000  1.0 0.1268889568
H  H108  1  0.05714000  0.47697000  0.10782000  1.0 0.1268889568
H  H109  1  0.55027000  0.45784000  0.17231000  1.0 0.1123566465
H  H110  1  0.44973000  0.54216000  0.67231000  1.0 0.1123566465
H  H111  1  0.94973000  0.45784000  0.67231000  1.0 0.1123566465
H  H112  1  0.05027000  0.54216000  0.17231000  1.0 0.1123566465
H  H113  1  0.86168000  0.44612000  0.18771000  1.0 0.1123566465
H  H114  1  0.13832000  0.55388000  0.68771000  1.0 0.1123566465
H  H115  1  0.63832000  0.44612000  0.68771000  1.0 0.1123566465
H  H116  1  0.36168000  0.55388000  0.18771000  1.0 0.1123566465
H  H117  1  0.99349000  0.37518000  0.17495000  1.0 0.1186409689
H  H118  1  0.00651000  0.62482000  0.67495000  1.0 0.1186409689
H  H119  1  0.50651000  0.37518000  0.67495000  1.0 0.1186409689
H  H120  1  0.49349000  0.62482000  0.17495000  1.0 0.1186409689
H  H121  1  0.87274000  0.27340000  0.27959000  1.0 0.1268889568
H  H122  1  0.12726000  0.72660000  0.77959000  1.0 0.1186409689
H  H123  1  0.62726000  0.27340000  0.77959000  1.0 0.1268889568
H  H124  1  0.37274000  0.72660000  0.27959000  1.0 0.1186409689
H  H125  1  0.73804000  0.34299000  0.29235000  1.0 0.1123566465
H  H126  1  0.26196000  0.65701000  0.79235000  1.0 0.1123566465
H  H127  1  0.76196000  0.34299000  0.79235000  1.0 0.1123566465
H  H128  1  0.23804000  0.65701000  0.29235000  1.0 0.1123566465
C  C1  1  0.30340000  0.10660000  0.83560000  1.0 0.5633205055
C  C2  1  0.69660000  0.89340000  0.33560000  1.0 0.5633205055
C  C3  1  0.19660000  0.10660000  0.33560000  1.0 0.5633205055
C  C4  1  0.80340000  0.89340000  0.83560000  1.0 0.5633205055
C  C5  1  0.28790000  0.06580000  0.87610000  1.0 -0.0525725582
C  C6  1  0.71210000  0.93420000  0.37610000  1.0 -0.0525725582
C  C7  1  0.21210000  0.06580000  0.37610000  1.0 -0.0525725582
C  C8  1  0.78790000  0.93420000  0.87610000  1.0 -0.0525725582
C  C9  1  0.35340000  0.01720000  0.88290000  1.0 -0.0905267121
C  C10  1  0.64660000  0.98280000  0.38290000  1.0 -0.0905267121
C  C11  1  0.14660000  0.01720000  0.38290000  1.0 -0.0905267121
C  C12  1  0.85340000  0.98280000  0.88290000  1.0 -0.0905267121
C  C13  1  0.33750000  0.97790000  0.92010000  1.0 -0.158111272
C  C14  1  0.66250000  0.02210000  0.42010000  1.0 -0.158111272
C  C15  1  0.16250000  0.97790000  0.42010000  1.0 -0.158111272
C  C16  1  0.83750000  0.02210000  0.92010000  1.0 -0.158111272
C  C17  1  0.26290000  0.98880000  0.95530000  1.0 0.0613656003
C  C18  1  0.73710000  0.01120000  0.45530000  1.0 0.0613656003
C  C19  1  0.23710000  0.98880000  0.45530000  1.0 0.0613656003
C  C20  1  0.76290000  0.01120000  0.95530000  1.0 0.0613656003
C  C21  1  0.19980000  0.03760000  0.95090000  1.0 -0.158111272
C  C22  1  0.80020000  0.96240000  0.45090000  1.0 -0.158111272
C  C23  1  0.30020000  0.03760000  0.45090000  1.0 -0.158111272
C  C24  1  0.69980000  0.96240000  0.95090000  1.0 -0.158111272
C  C25  1  0.21040000  0.07750000  0.91210000  1.0 -0.0905267121
C  C26  1  0.78960000  0.92250000  0.41210000  1.0 -0.0905267121
C  C27  1  0.28960000  0.07750000  0.41210000  1.0 -0.0905267121
C  C28  1  0.71040000  0.92250000  0.91210000  1.0 -0.0905267121
C  C29  1  0.25440000  0.94680000  0.99860000  1.0 -0.0117566319
C  C30  1  0.74560000  0.05320000  0.49860000  1.0 -0.0117566319
C  C31  1  0.24560000  0.94680000  0.49860000  1.0 -0.0117566319
C  C32  1  0.75440000  0.05320000  0.99860000  1.0 -0.0117566319
C  C33  1  0.15550000  0.90530000  0.99300000  1.0 0.0613656003
C  C34  1  0.84450000  0.09470000  0.49300000  1.0 0.0613656003
C  C35  1  0.34450000  0.90530000  0.49300000  1.0 0.0613656003
C  C36  1  0.65550000  0.09470000  0.99300000  1.0 0.0613656003
C  C37  1  0.07520000  0.91290000  0.95970000  1.0 -0.151835114
C  C38  1  0.92480000  0.08710000  0.45970000  1.0 -0.151835114
C  C39  1  0.42480000  0.91290000  0.45970000  1.0 -0.151835114
C  C40  1  0.57520000  0.08710000  0.95970000  1.0 -0.151835114
C  C41  1  0.99220000  0.87150000  0.95600000  1.0 -0.1076614232
C  C42  1  0.00780000  0.12850000  0.45600000  1.0 -0.1076614232
C  C43  1  0.50780000  0.87150000  0.45600000  1.0 -0.1076614232
C  C44  1  0.49220000  0.12850000  0.95600000  1.0 -0.1076614232
C  C45  1  0.98680000  0.82230000  0.98360000  1.0 -0.0232212843
C  C46  1  0.01320000  0.17770000  0.48360000  1.0 -0.0232212843
C  C47  1  0.51320000  0.82230000  0.48360000  1.0 -0.0232212843
C  C48  1  0.48680000  0.17770000  0.98360000  1.0 -0.0232212843
C  C49  1  0.89650000  0.77640000  0.97750000  1.0 0.5973114608
C  C50  1  0.10350000  0.22360000  0.47750000  1.0 0.5973114608
C  C51  1  0.60350000  0.77640000  0.47750000  1.0 0.5973114608
C  C52  1  0.39650000  0.22360000  0.97750000  1.0 0.5973114608
C  C53  1  0.06530000  0.81510000  0.01770000  1.0 -0.1008364161
C  C54  1  0.93470000  0.18490000  0.51770000  1.0 -0.1008364161
C  C55  1  0.43470000  0.81510000  0.51770000  1.0 -0.1008364161
C  C56  1  0.56530000  0.18490000  0.01770000  1.0 -0.1008364161
C  C57  1  0.14270000  0.85430000  0.02280000  1.0 -0.151835114
C  C58  1  0.85730000  0.14570000  0.52280000  1.0 -0.151835114
C  C59  1  0.35730000  0.85430000  0.52280000  1.0 -0.151835114
C  C60  1  0.64270000  0.14570000  0.02280000  1.0 -0.151835114
C  C61  1  0.23380000  0.98650000  0.04400000  1.0 0.0700731368
C  C62  1  0.76620000  0.01350000  0.54400000  1.0 0.0700731368
C  C63  1  0.26620000  0.98650000  0.54400000  1.0 0.0700731368
C  C64  1  0.73380000  0.01350000  0.04400000  1.0 0.0700731368
C  C65  1  0.15480000  0.97730000  0.07690000  1.0 -0.1666967654
C  C66  1  0.84520000  0.02270000  0.57690000  1.0 -0.1666967654
C  C67  1  0.34520000  0.97730000  0.57690000  1.0 -0.1666967654
C  C68  1  0.65480000  0.02270000  0.07690000  1.0 -0.1666967654
C  C69  1  0.14520000  0.01410000  0.11740000  1.0 -0.1008364161
C  C70  1  0.85480000  0.98590000  0.61740000  1.0 -0.1008364161
C  C71  1  0.35480000  0.01410000  0.61740000  1.0 -0.1008364161
C  C72  1  0.64520000  0.98590000  0.11740000  1.0 -0.1008364161
C  C73  1  0.21250000  0.06510000  0.12150000  1.0 -0.0554508725
C  C74  1  0.78750000  0.93490000  0.62150000  1.0 -0.0554508725
C  C75  1  0.28750000  0.06510000  0.62150000  1.0 -0.0554508725
C  C76  1  0.71250000  0.93490000  0.12150000  1.0 -0.0554508725
C  C77  1  0.19510000  0.10570000  0.16160000  1.0 0.5880972995
C  C78  1  0.80490000  0.89430000  0.66160000  1.0 0.5880972995
C  C79  1  0.30490000  0.10570000  0.66160000  1.0 0.5880972995
C  C80  1  0.69510000  0.89430000  0.16160000  1.0 0.5880972995
C  C81  1  0.29130000  0.07470000  0.08790000  1.0 -0.0905267121
C  C82  1  0.70870000  0.92530000  0.58790000  1.0 -0.0905267121
C  C83  1  0.20870000  0.07470000  0.58790000  1.0 -0.0905267121
C  C84  1  0.79130000  0.92530000  0.08790000  1.0 -0.0905267121
C  C85  1  0.30460000  0.03900000  0.05120000  1.0 -0.1400759787
C  C86  1  0.69540000  0.96100000  0.55120000  1.0 -0.1400759787
C  C87  1  0.19540000  0.03900000  0.55120000  1.0 -0.1400759787
C  C88  1  0.80460000  0.96100000  0.05120000  1.0 -0.1400759787
C  C89  1  0.35250000  0.90640000  0.00490000  1.0 0.0547320536
C  C90  1  0.64750000  0.09360000  0.50490000  1.0 0.0547320536
C  C91  1  0.14750000  0.90640000  0.50490000  1.0 0.0547320536
C  C92  1  0.85250000  0.09360000  0.00490000  1.0 0.0547320536
C  C93  1  0.36070000  0.85810000  0.97380000  1.0 -0.1763631747
C  C94  1  0.63930000  0.14190000  0.47380000  1.0 -0.1763631747
C  C95  1  0.13930000  0.85810000  0.47380000  1.0 -0.1763631747
C  C96  1  0.86070000  0.14190000  0.97380000  1.0 -0.1763631747
C  C97  1  0.44630000  0.81560000  0.97900000  1.0 -0.1008364161
C  C98  1  0.55370000  0.18440000  0.47900000  1.0 -0.1008364161
C  C99  1  0.05370000  0.81560000  0.47900000  1.0 -0.1008364161
C  C100  1  0.94630000  0.18440000  0.97900000  1.0 -0.1008364161
C  C101  1  0.51930000  0.82070000  0.01450000  1.0 -0.0281568718
C  C102  1  0.48070000  0.17930000  0.51450000  1.0 -0.0281568718
C  C103  1  0.98070000  0.82070000  0.51450000  1.0 -0.0281568718
C  C104  1  0.01930000  0.17930000  0.01450000  1.0 -0.0281568718
C  C105  1  0.60370000  0.77320000  0.02250000  1.0 0.6055292367
C  C106  1  0.39630000  0.22680000  0.52250000  1.0 0.6055292367
C  C107  1  0.89630000  0.77320000  0.52250000  1.0 0.5973114608
C  C108  1  0.10370000  0.22680000  0.02250000  1.0 0.6055292367
C  C109  1  0.50970000  0.87130000  0.04690000  1.0 -0.0846531735
C  C110  1  0.49030000  0.12870000  0.54690000  1.0 -0.0846531735
C  C111  1  0.99030000  0.87130000  0.54690000  1.0 -0.0846531735
C  C112  1  0.00970000  0.12870000  0.04690000  1.0 -0.0846531735
C  C113  1  0.42870000  0.91270000  0.03980000  1.0 -0.151835114
C  C114  1  0.57130000  0.08730000  0.53980000  1.0 -0.151835114
C  C115  1  0.07130000  0.91270000  0.53980000  1.0 -0.151835114
C  C116  1  0.92870000  0.08730000  0.03980000  1.0 -0.151835114
C  C117  1  0.31600000  0.28620000  0.25210000  1.0 0.6184013514
C  C118  1  0.68400000  0.71380000  0.75210000  1.0 0.6184013514
C  C119  1  0.18400000  0.28620000  0.75210000  1.0 0.6184013514
C  C120  1  0.81600000  0.71380000  0.25210000  1.0 0.6184013514
C  C121  1  0.40790000  0.32850000  0.25280000  1.0 -0.0554508725
C  C122  1  0.59210000  0.67150000  0.75280000  1.0 -0.0554508725
C  C123  1  0.09210000  0.32850000  0.75280000  1.0 -0.0554508725
C  C124  1  0.90790000  0.67150000  0.25280000  1.0 -0.0525725582
C  C125  1  0.42380000  0.36920000  0.28770000  1.0 -0.1008364161
C  C126  1  0.57620000  0.63080000  0.78770000  1.0 -0.1008364161
C  C127  1  0.07620000  0.36920000  0.78770000  1.0 -0.1008364161
C  C128  1  0.92380000  0.63080000  0.28770000  1.0 -0.1008364161
C  C129  1  0.51280000  0.40800000  0.28830000  1.0 -0.151835114
C  C130  1  0.48720000  0.59200000  0.78830000  1.0 -0.151835114
C  C131  1  0.98720000  0.40800000  0.78830000  1.0 -0.151835114
C  C132  1  0.01280000  0.59200000  0.28830000  1.0 -0.151835114
C  C133  1  0.58620000  0.40540000  0.25030000  1.0 0.0700731368
C  C134  1  0.41380000  0.59460000  0.75030000  1.0 0.0700731368
C  C135  1  0.91380000  0.40540000  0.75030000  1.0 0.0700731368
C  C136  1  0.08620000  0.59460000  0.25030000  1.0 0.0700731368
C  C137  1  0.56890000  0.36310000  0.21500000  1.0 -0.151835114
C  C138  1  0.43110000  0.63690000  0.71500000  1.0 -0.151835114
C  C139  1  0.93110000  0.36310000  0.71500000  1.0 -0.151835114
C  C140  1  0.06890000  0.63690000  0.21500000  1.0 -0.151835114
C  C141  1  0.48240000  0.32610000  0.21500000  1.0 -0.1008364161
C  C142  1  0.51760000  0.67390000  0.71500000  1.0 -0.1008364161
C  C143  1  0.01760000  0.32610000  0.71500000  1.0 -0.1008364161
C  C144  1  0.98240000  0.67390000  0.21500000  1.0 -0.1008364161
C  C145  1  0.68750000  0.44550000  0.24850000  1.0 -0.0117566319
C  C146  1  0.31250000  0.55450000  0.74850000  1.0 -0.0117566319
C  C147  1  0.81250000  0.44550000  0.74850000  1.0 -0.0117566319
C  C148  1  0.18750000  0.55450000  0.24850000  1.0 -0.0117566319
C  C149  1  0.70250000  0.48280000  0.29340000  1.0 0.0613656003
C  C150  1  0.29750000  0.51720000  0.79340000  1.0 0.0613656003
C  C151  1  0.79750000  0.48280000  0.79340000  1.0 0.0613656003
C  C152  1  0.20250000  0.51720000  0.29340000  1.0 0.0613656003
C  C153  1  0.63460000  0.53160000  0.30180000  1.0 -0.151835114
C  C154  1  0.36540000  0.46840000  0.80180000  1.0 -0.151835114
C  C155  1  0.86540000  0.53160000  0.80180000  1.0 -0.151835114
C  C156  1  0.13460000  0.46840000  0.30180000  1.0 -0.151835114
C  C157  1  0.64940000  0.57040000  0.33900000  1.0 -0.1169529343
C  C158  1  0.35060000  0.42960000  0.83900000  1.0 -0.1169529343
C  C159  1  0.85060000  0.57040000  0.83900000  1.0 -0.1169529343
C  C160  1  0.14940000  0.42960000  0.33900000  1.0 -0.1169529343
C  C161  1  0.73260000  0.55950000  0.37140000  1.0 -0.0232212843
C  C162  1  0.26740000  0.44050000  0.87140000  1.0 -0.0232212843
C  C163  1  0.76740000  0.55950000  0.87140000  1.0 -0.0232212843
C  C164  1  0.23260000  0.44050000  0.37140000  1.0 -0.0232212843
C  C165  1  0.75300000  0.60260000  0.41190000  1.0 0.5880972995
C  C166  1  0.24700000  0.39740000  0.91190000  1.0 0.5880972995
C  C167  1  0.74700000  0.60260000  0.91190000  1.0 0.5880972995
C  C168  1  0.25300000  0.39740000  0.41190000  1.0 0.5880972995
C  C169  1  0.79550000  0.51170000  0.36610000  1.0 -0.1008364161
C  C170  1  0.20450000  0.48830000  0.86610000  1.0 -0.1008364161
C  C171  1  0.70450000  0.51170000  0.86610000  1.0 -0.1008364161
C  C172  1  0.29550000  0.48830000  0.36610000  1.0 -0.1008364161
C  C173  1  0.78450000  0.47230000  0.32660000  1.0 -0.158111272
C  C174  1  0.21550000  0.52770000  0.82660000  1.0 -0.158111272
C  C175  1  0.71550000  0.47230000  0.82660000  1.0 -0.158111272
C  C176  1  0.28450000  0.52770000  0.32660000  1.0 -0.158111272
C  C177  1  0.68190000  0.49100000  0.20610000  1.0 0.0613656003
C  C178  1  0.31810000  0.50900000  0.70610000  1.0 0.0613656003
C  C179  1  0.81810000  0.49100000  0.70610000  1.0 0.0613656003
C  C180  1  0.18190000  0.50900000  0.20610000  1.0 0.0613656003
C  C181  1  0.75590000  0.53580000  0.20440000  1.0 -0.158111272
C  C182  1  0.24410000  0.46420000  0.70440000  1.0 -0.158111272
C  C183  1  0.74410000  0.53580000  0.70440000  1.0 -0.158111272
C  C184  1  0.25590000  0.46420000  0.20440000  1.0 -0.158111272
C  C185  1  0.75870000  0.57620000  0.16600000  1.0 -0.1008364161
C  C186  1  0.24130000  0.42380000  0.66600000  1.0 -0.1008364161
C  C187  1  0.74130000  0.57620000  0.66600000  1.0 -0.1008364161
C  C188  1  0.25870000  0.42380000  0.16600000  1.0 -0.1008364161
C  C189  1  0.68600000  0.57050000  0.13090000  1.0 -0.0117566319
C  C190  1  0.31400000  0.42950000  0.63090000  1.0 -0.0117566319
C  C191  1  0.81400000  0.57050000  0.63090000  1.0 -0.0117566319
C  C192  1  0.18600000  0.42950000  0.13090000  1.0 -0.0117566319
C  C193  1  0.69030000  0.61230000  0.08680000  1.0 0.5800724505
C  C194  1  0.30970000  0.38770000  0.58680000  1.0 0.5800724505
C  C195  1  0.80970000  0.61230000  0.58680000  1.0 0.5800724505
C  C196  1  0.19030000  0.38770000  0.08680000  1.0 0.5800724505
C  C197  1  0.60850000  0.52640000  0.13270000  1.0 -0.1008364161
C  C198  1  0.39150000  0.47360000  0.63270000  1.0 -0.1008364161
C  C199  1  0.89150000  0.52640000  0.63270000  1.0 -0.1008364161
C  C200  1  0.10850000  0.47360000  0.13270000  1.0 -0.1008364161
C  C201  1  0.60520000  0.48730000  0.17060000  1.0 -0.158111272
C  C202  1  0.39480000  0.51270000  0.67060000  1.0 -0.158111272
C  C203  1  0.89480000  0.48730000  0.67060000  1.0 -0.158111272
C  C204  1  0.10520000  0.51270000  0.17060000  1.0 -0.158111272
C  C205  1  0.78280000  0.40170000  0.24020000  1.0 0.0700731368
C  C206  1  0.21720000  0.59830000  0.74020000  1.0 0.0700731368
C  C207  1  0.71720000  0.40170000  0.74020000  1.0 0.0700731368
C  C208  1  0.28280000  0.59830000  0.24020000  1.0 0.0700731368
C  C209  1  0.86170000  0.41040000  0.20610000  1.0 -0.158111272
C  C210  1  0.13830000  0.58960000  0.70610000  1.0 -0.158111272
C  C211  1  0.63830000  0.41040000  0.70610000  1.0 -0.158111272
C  C212  1  0.36170000  0.58960000  0.20610000  1.0 -0.158111272
C  C213  1  0.94010000  0.36800000  0.19850000  1.0 -0.1008364161
C  C214  1  0.05990000  0.63200000  0.69850000  1.0 -0.1008364161
C  C215  1  0.55990000  0.36800000  0.69850000  1.0 -0.1008364161
C  C216  1  0.44010000  0.63200000  0.19850000  1.0 -0.1008364161
C  C217  1  0.94340000  0.31600000  0.22370000  1.0 -0.0374514264
C  C218  1  0.05660000  0.68400000  0.72370000  1.0 -0.0374514264
C  C219  1  0.55660000  0.31600000  0.72370000  1.0 -0.0374514264
C  C220  1  0.44340000  0.68400000  0.22370000  1.0 -0.0374514264
C  C221  1  0.02460000  0.26840000  0.21320000  1.0 0.6184013514
C  C222  1  0.97540000  0.73160000  0.71320000  1.0 0.6184013514
C  C223  1  0.47540000  0.26840000  0.71320000  1.0 0.6184013514
C  C224  1  0.52460000  0.73160000  0.21320000  1.0 0.6184013514
C  C225  1  0.86880000  0.30800000  0.26000000  1.0 -0.1008364161
C  C226  1  0.13120000  0.69200000  0.76000000  1.0 -0.1008364161
C  C227  1  0.63120000  0.30800000  0.76000000  1.0 -0.1008364161
C  C228  1  0.36880000  0.69200000  0.26000000  1.0 -0.1008364161
C  C229  1  0.78940000  0.34960000  0.26780000  1.0 -0.1666967654
C  C230  1  0.21060000  0.65040000  0.76780000  1.0 -0.1666967654
C  C231  1  0.71060000  0.34960000  0.76780000  1.0 -0.1666967654
C  C232  1  0.28940000  0.65040000  0.26780000  1.0 -0.1666967654
O  O1  1  0.26250000  0.16050000  0.83770000  1.0 -0.7277007224
O  O2  1  0.73750000  0.83950000  0.33770000  1.0 -0.7277007224
O  O3  1  0.23750000  0.16050000  0.33770000  1.0 -0.7277007224
O  O4  1  0.76250000  0.83950000  0.83770000  1.0 -0.7277007224
O  O5  1  0.36310000  0.09340000  0.80470000  1.0 -0.4790870171
O  O6  1  0.63690000  0.90660000  0.30470000  1.0 -0.4790870171
O  O7  1  0.13690000  0.09340000  0.30470000  1.0 -0.4733157577
O  O8  1  0.86310000  0.90660000  0.80470000  1.0 -0.4790870171
O  O9  1  0.88330000  0.73960000  0.01143000  1.0 -0.6122291208
O  O10  1  0.11670000  0.26040000  0.51143000  1.0 -0.6122291208
O  O11  1  0.61670000  0.73960000  0.51143000  1.0 -0.6122291208
O  O12  1  0.38330000  0.26040000  0.01143000  1.0 -0.6122291208
O  O13  1  0.84200000  0.77880000  0.94249000  1.0 -0.5999051975
O  O14  1  0.15800000  0.22120000  0.44249000  1.0 -0.5999051975
O  O15  1  0.65800000  0.77880000  0.44249000  1.0 -0.5999051975
O  O16  1  0.34200000  0.22120000  0.94249000  1.0 -0.5999051975
O  O17  1  0.23470000  0.15600000  0.16222000  1.0 -0.6442486764
O  O18  1  0.76530000  0.84400000  0.66222000  1.0 -0.6442486764
O  O19  1  0.26530000  0.15600000  0.66222000  1.0 -0.6442486764
O  O20  1  0.73470000  0.84400000  0.16222000  1.0 -0.6442486764
O  O21  1  0.14670000  0.08550000  0.20080000  1.0 -0.5914957495
O  O22  1  0.85330000  0.91450000  0.70080000  1.0 -0.5914957495
O  O23  1  0.35330000  0.08550000  0.70080000  1.0 -0.5914957495
O  O24  1  0.64670000  0.91450000  0.20080000  1.0 -0.5914957495
O  O25  1  0.61360000  0.73500000  0.99299000  1.0 -0.5481861056
O  O26  1  0.38640000  0.26500000  0.49299000  1.0 -0.5481861056
O  O27  1  0.88640000  0.73500000  0.49299000  1.0 -0.5481861056
O  O28  1  0.11360000  0.26500000  0.99299000  1.0 -0.5481861056
O  O29  1  0.65610000  0.77670000  0.06340000  1.0 -0.710123402
O  O30  1  0.34390000  0.22330000  0.56340000  1.0 -0.710123402
O  O31  1  0.84390000  0.77670000  0.56340000  1.0 -0.710123402
O  O32  1  0.15610000  0.22330000  0.06340000  1.0 -0.710123402
O  O33  1  0.26900000  0.27340000  0.29099000  1.0 -0.6603137673
O  O34  1  0.73100000  0.72660000  0.79099000  1.0 -0.6603137673
O  O35  1  0.23100000  0.27340000  0.79099000  1.0 -0.6603137673
O  O36  1  0.76900000  0.72660000  0.29099000  1.0 -0.6603137673
O  O37  1  0.29100000  0.26000000  0.21313000  1.0 -0.6804026933
O  O38  1  0.70900000  0.74000000  0.71313000  1.0 -0.6804026933
O  O39  1  0.20900000  0.26000000  0.71313000  1.0 -0.6804026933
O  O40  1  0.79100000  0.74000000  0.21313000  1.0 -0.6804026933
O  O41  1  0.71200000  0.65510000  0.41121000  1.0 -0.7203330518
O  O42  1  0.28800000  0.34490000  0.91121000  1.0 -0.7203330518
O  O43  1  0.78800000  0.65510000  0.91121000  1.0 -0.7203330518
O  O44  1  0.21200000  0.34490000  0.41121000  1.0 -0.7203330518
O  O45  1  0.80900000  0.58520000  0.44729000  1.0 -0.5701061607
O  O46  1  0.19100000  0.41480000  0.94729000  1.0 -0.5701061607
O  O47  1  0.69100000  0.58520000  0.94729000  1.0 -0.5701061607
O  O48  1  0.30900000  0.41480000  0.44729000  1.0 -0.5701061607
O  O49  1  0.74890000  0.65900000  0.09100000  1.0 -0.7016599498
O  O50  1  0.25110000  0.34100000  0.59100000  1.0 -0.710123402
O  O51  1  0.75110000  0.65900000  0.59100000  1.0 -0.7016599498
O  O52  1  0.24890000  0.34100000  0.09100000  1.0 -0.710123402
O  O53  1  0.64590000  0.59730000  0.05007000  1.0 -0.5118857743
O  O54  1  0.35410000  0.40270000  0.55007000  1.0 -0.517222655
O  O55  1  0.85410000  0.59730000  0.55007000  1.0 -0.5118857743
O  O56  1  0.14590000  0.40270000  0.05007000  1.0 -0.517222655
O  O57  1  0.06900000  0.26816000  0.17015000  1.0 -0.7016599498
O  O58  1  0.93100000  0.73184000  0.67015000  1.0 -0.7016599498
O  O59  1  0.43100000  0.26816000  0.67015000  1.0 -0.7016599498
O  O60  1  0.56900000  0.73184000  0.17015000  1.0 -0.7016599498
O  O61  1  0.04610000  0.22950000  0.24400000  1.0 -0.5999051975
O  O62  1  0.95390000  0.77050000  0.74400000  1.0 -0.5999051975
O  O63  1  0.45390000  0.22950000  0.74400000  1.0 -0.5999051975
O  O64  1  0.54610000  0.77050000  0.24400000  1.0 -0.5999051975
