# DDEC6 charges by PACMAN v1.1 (https://github.com/mtap-research/PACMAN-charge/)
data_am8b22327_si_002_ASR_pacman
_symmetry_space_group_name_H-M   'P 1'
_cell_length_a   36.55840000
_cell_length_b   36.55840000
_cell_length_c   36.55840000
_cell_angle_alpha   90.00000000
_cell_angle_beta   90.00000000
_cell_angle_gamma   90.00000000
_symmetry_Int_Tables_number   1
_chemical_formula_structural   In3H30C66N3O13
_chemical_formula_sum   'In24 H240 C528 N24 O104'
_cell_volume   48860.90885550
_cell_formula_units_Z   8
loop_
 _symmetry_equiv_pos_site_id
 _symmetry_equiv_pos_as_xyz
  1  'x, y, z'
loop_
 _atom_site_type_symbol
 _atom_site_label
 _atom_site_symmetry_multiplicity
 _atom_site_fract_x
 _atom_site_fract_y
 _atom_site_fract_z
 _atom_site_occupancy
 _atom_site_charge
In  In1  1  0.25000000  0.28919000  0.21081000  1.0 1.480070809
In  In2  1  0.75000000  0.71081000  0.21081000  1.0 1.480070809
In  In3  1  0.75000000  0.28919000  0.78919000  1.0 1.480070809
In  In4  1  0.25000000  0.71081000  0.78919000  1.0 1.480070809
In  In5  1  0.21081000  0.25000000  0.28919000  1.0 1.480070809
In  In6  1  0.21081000  0.75000000  0.71081000  1.0 1.480070809
In  In7  1  0.78919000  0.75000000  0.28919000  1.0 1.480070809
In  In8  1  0.78919000  0.25000000  0.71081000  1.0 1.480070809
In  In9  1  0.28919000  0.21081000  0.25000000  1.0 1.480070809
In  In10  1  0.71081000  0.21081000  0.75000000  1.0 1.480070809
In  In11  1  0.28919000  0.78919000  0.75000000  1.0 1.480070809
In  In12  1  0.71081000  0.78919000  0.25000000  1.0 1.480070809
In  In13  1  0.75000000  0.71081000  0.78919000  1.0 1.480070809
In  In14  1  0.25000000  0.28919000  0.78919000  1.0 1.480070809
In  In15  1  0.25000000  0.71081000  0.21081000  1.0 1.480070809
In  In16  1  0.75000000  0.28919000  0.21081000  1.0 1.480070809
In  In17  1  0.78919000  0.75000000  0.71081000  1.0 1.480070809
In  In18  1  0.78919000  0.25000000  0.28919000  1.0 1.480070809
In  In19  1  0.21081000  0.25000000  0.71081000  1.0 1.480070809
In  In20  1  0.21081000  0.75000000  0.28919000  1.0 1.480070809
In  In21  1  0.71081000  0.78919000  0.75000000  1.0 1.480070809
In  In22  1  0.28919000  0.78919000  0.25000000  1.0 1.480070809
In  In23  1  0.71081000  0.21081000  0.25000000  1.0 1.480070809
In  In24  1  0.28919000  0.21081000  0.75000000  1.0 1.480070809
H  H1  1  0.24440000  0.23590000  0.10030000  1.0 0.1300370828
H  H2  1  0.26290000  0.08650000  0.05450000  1.0 0.1219725878
H  H3  1  0.29540000  0.15400000  0.14900000  1.0 0.1300370828
H  H4  1  0.24220000  0.20350000  0.04650000  1.0 0.1219725878
H  H5  1  0.29200000  0.12060000  0.09670000  1.0 0.1219725878
H  H6  1  0.75560000  0.76410000  0.10030000  1.0 0.1300370828
H  H7  1  0.73710000  0.91350000  0.05450000  1.0 0.1219725878
H  H8  1  0.70460000  0.84600000  0.14900000  1.0 0.1300370828
H  H9  1  0.75780000  0.79650000  0.04650000  1.0 0.1219725878
H  H10  1  0.70800000  0.87940000  0.09670000  1.0 0.1219725878
H  H11  1  0.75560000  0.23590000  0.89970000  1.0 0.1300370828
H  H12  1  0.73710000  0.08650000  0.94550000  1.0 0.1219725878
H  H13  1  0.70460000  0.15400000  0.85100000  1.0 0.1300370828
H  H14  1  0.75780000  0.20350000  0.95350000  1.0 0.1219725878
H  H15  1  0.70800000  0.12060000  0.90330000  1.0 0.1219725878
H  H16  1  0.24440000  0.76410000  0.89970000  1.0 0.1300370828
H  H17  1  0.26290000  0.91350000  0.94550000  1.0 0.1219725878
H  H18  1  0.29540000  0.84600000  0.85100000  1.0 0.1300370828
H  H19  1  0.24220000  0.79650000  0.95350000  1.0 0.1219725878
H  H20  1  0.29200000  0.87940000  0.90330000  1.0 0.1219725878
H  H21  1  0.10030000  0.24440000  0.23590000  1.0 0.1300370828
H  H22  1  0.05450000  0.26290000  0.08650000  1.0 0.1219725878
H  H23  1  0.14900000  0.29540000  0.15400000  1.0 0.1300370828
H  H24  1  0.04650000  0.24220000  0.20350000  1.0 0.1219725878
H  H25  1  0.09670000  0.29200000  0.12060000  1.0 0.1219725878
H  H26  1  0.10030000  0.75560000  0.76410000  1.0 0.1300370828
H  H27  1  0.05450000  0.73710000  0.91350000  1.0 0.1219725878
H  H28  1  0.14900000  0.70460000  0.84600000  1.0 0.1300370828
H  H29  1  0.04650000  0.75780000  0.79650000  1.0 0.1219725878
H  H30  1  0.09670000  0.70800000  0.87940000  1.0 0.1219725878
H  H31  1  0.89970000  0.75560000  0.23590000  1.0 0.1300370828
H  H32  1  0.94550000  0.73710000  0.08650000  1.0 0.1219725878
H  H33  1  0.85100000  0.70460000  0.15400000  1.0 0.1300370828
H  H34  1  0.95350000  0.75780000  0.20350000  1.0 0.1219725878
H  H35  1  0.90330000  0.70800000  0.12060000  1.0 0.1219725878
H  H36  1  0.89970000  0.24440000  0.76410000  1.0 0.1300370828
H  H37  1  0.94550000  0.26290000  0.91350000  1.0 0.1219725878
H  H38  1  0.85100000  0.29540000  0.84600000  1.0 0.1300370828
H  H39  1  0.95350000  0.24220000  0.79650000  1.0 0.1219725878
H  H40  1  0.90330000  0.29200000  0.87940000  1.0 0.1219725878
H  H41  1  0.23590000  0.10030000  0.24440000  1.0 0.1300370828
H  H42  1  0.08650000  0.05450000  0.26290000  1.0 0.1219725878
H  H43  1  0.15400000  0.14900000  0.29540000  1.0 0.1300370828
H  H44  1  0.20350000  0.04650000  0.24220000  1.0 0.1219725878
H  H45  1  0.12060000  0.09670000  0.29200000  1.0 0.1219725878
H  H46  1  0.76410000  0.10030000  0.75560000  1.0 0.1300370828
H  H47  1  0.91350000  0.05450000  0.73710000  1.0 0.1219725878
H  H48  1  0.84600000  0.14900000  0.70460000  1.0 0.1300370828
H  H49  1  0.79650000  0.04650000  0.75780000  1.0 0.1219725878
H  H50  1  0.87940000  0.09670000  0.70800000  1.0 0.1219725878
H  H51  1  0.23590000  0.89970000  0.75560000  1.0 0.1300370828
H  H52  1  0.08650000  0.94550000  0.73710000  1.0 0.1219725878
H  H53  1  0.15400000  0.85100000  0.70460000  1.0 0.1300370828
H  H54  1  0.20350000  0.95350000  0.75780000  1.0 0.1219725878
H  H55  1  0.12060000  0.90330000  0.70800000  1.0 0.1219725878
H  H56  1  0.76410000  0.89970000  0.24440000  1.0 0.1300370828
H  H57  1  0.91350000  0.94550000  0.26290000  1.0 0.1219725878
H  H58  1  0.84600000  0.85100000  0.29540000  1.0 0.1300370828
H  H59  1  0.79650000  0.95350000  0.24220000  1.0 0.1219725878
H  H60  1  0.87940000  0.90330000  0.29200000  1.0 0.1219725878
H  H61  1  0.73590000  0.74440000  0.39970000  1.0 0.1300370828
H  H62  1  0.58650000  0.76290000  0.44550000  1.0 0.1219725878
H  H63  1  0.65400000  0.79540000  0.35100000  1.0 0.1300370828
H  H64  1  0.70350000  0.74220000  0.45350000  1.0 0.1219725878
H  H65  1  0.62060000  0.79200000  0.40330000  1.0 0.1219725878
H  H66  1  0.26410000  0.25560000  0.39970000  1.0 0.1300370828
H  H67  1  0.41350000  0.23710000  0.44550000  1.0 0.1219725878
H  H68  1  0.34600000  0.20460000  0.35100000  1.0 0.1300370828
H  H69  1  0.29650000  0.25780000  0.45350000  1.0 0.1219725878
H  H70  1  0.37940000  0.20800000  0.40330000  1.0 0.1219725878
H  H71  1  0.73590000  0.25560000  0.60030000  1.0 0.1300370828
H  H72  1  0.58650000  0.23710000  0.55450000  1.0 0.1219725878
H  H73  1  0.65400000  0.20460000  0.64900000  1.0 0.1300370828
H  H74  1  0.70350000  0.25780000  0.54650000  1.0 0.1219725878
H  H75  1  0.62060000  0.20800000  0.59670000  1.0 0.1219725878
H  H76  1  0.26410000  0.74440000  0.60030000  1.0 0.1300370828
H  H77  1  0.41350000  0.76290000  0.55450000  1.0 0.1219725878
H  H78  1  0.34600000  0.79540000  0.64900000  1.0 0.1300370828
H  H79  1  0.29650000  0.74220000  0.54650000  1.0 0.1219725878
H  H80  1  0.37940000  0.79200000  0.59670000  1.0 0.1219725878
H  H81  1  0.74440000  0.60030000  0.26410000  1.0 0.1300370828
H  H82  1  0.76290000  0.55450000  0.41350000  1.0 0.1219725878
H  H83  1  0.79540000  0.64900000  0.34600000  1.0 0.1300370828
H  H84  1  0.74220000  0.54650000  0.29650000  1.0 0.1219725878
H  H85  1  0.79200000  0.59670000  0.37940000  1.0 0.1219725878
H  H86  1  0.25560000  0.60030000  0.73590000  1.0 0.1300370828
H  H87  1  0.23710000  0.55450000  0.58650000  1.0 0.1219725878
H  H88  1  0.20460000  0.64900000  0.65400000  1.0 0.1300370828
H  H89  1  0.25780000  0.54650000  0.70350000  1.0 0.1219725878
H  H90  1  0.20800000  0.59670000  0.62060000  1.0 0.1219725878
H  H91  1  0.25560000  0.39970000  0.26410000  1.0 0.1300370828
H  H92  1  0.23710000  0.44550000  0.41350000  1.0 0.1219725878
H  H93  1  0.20460000  0.35100000  0.34600000  1.0 0.1300370828
H  H94  1  0.25780000  0.45350000  0.29650000  1.0 0.1219725878
H  H95  1  0.20800000  0.40330000  0.37940000  1.0 0.1219725878
H  H96  1  0.74440000  0.39970000  0.73590000  1.0 0.1300370828
H  H97  1  0.76290000  0.44550000  0.58650000  1.0 0.1219725878
H  H98  1  0.79540000  0.35100000  0.65400000  1.0 0.1300370828
H  H99  1  0.74220000  0.45350000  0.70350000  1.0 0.1219725878
H  H100  1  0.79200000  0.40330000  0.62060000  1.0 0.1219725878
H  H101  1  0.60030000  0.73590000  0.25560000  1.0 0.1300370828
H  H102  1  0.55450000  0.58650000  0.23710000  1.0 0.1219725878
H  H103  1  0.64900000  0.65400000  0.20460000  1.0 0.1300370828
H  H104  1  0.54650000  0.70350000  0.25780000  1.0 0.1219725878
H  H105  1  0.59670000  0.62060000  0.20800000  1.0 0.1219725878
H  H106  1  0.60030000  0.26410000  0.74440000  1.0 0.1300370828
H  H107  1  0.55450000  0.41350000  0.76290000  1.0 0.1219725878
H  H108  1  0.64900000  0.34600000  0.79540000  1.0 0.1300370828
H  H109  1  0.54650000  0.29650000  0.74220000  1.0 0.1219725878
H  H110  1  0.59670000  0.37940000  0.79200000  1.0 0.1219725878
H  H111  1  0.39970000  0.73590000  0.74440000  1.0 0.1300370828
H  H112  1  0.44550000  0.58650000  0.76290000  1.0 0.1219725878
H  H113  1  0.35100000  0.65400000  0.79540000  1.0 0.1300370828
H  H114  1  0.45350000  0.70350000  0.74220000  1.0 0.1219725878
H  H115  1  0.40330000  0.62060000  0.79200000  1.0 0.1219725878
H  H116  1  0.39970000  0.26410000  0.25560000  1.0 0.1300370828
H  H117  1  0.44550000  0.41350000  0.23710000  1.0 0.1219725878
H  H118  1  0.35100000  0.34600000  0.20460000  1.0 0.1300370828
H  H119  1  0.45350000  0.29650000  0.25780000  1.0 0.1219725878
H  H120  1  0.40330000  0.37940000  0.20800000  1.0 0.1219725878
H  H121  1  0.75560000  0.76410000  0.89970000  1.0 0.1300370828
H  H122  1  0.73710000  0.91350000  0.94550000  1.0 0.1219725878
H  H123  1  0.70460000  0.84600000  0.85100000  1.0 0.1300370828
H  H124  1  0.75780000  0.79650000  0.95350000  1.0 0.1219725878
H  H125  1  0.70800000  0.87940000  0.90330000  1.0 0.1219725878
H  H126  1  0.24440000  0.23590000  0.89970000  1.0 0.1300370828
H  H127  1  0.26290000  0.08650000  0.94550000  1.0 0.1219725878
H  H128  1  0.29540000  0.15400000  0.85100000  1.0 0.1300370828
H  H129  1  0.24220000  0.20350000  0.95350000  1.0 0.1219725878
H  H130  1  0.29200000  0.12060000  0.90330000  1.0 0.1219725878
H  H131  1  0.24440000  0.76410000  0.10030000  1.0 0.1300370828
H  H132  1  0.26290000  0.91350000  0.05450000  1.0 0.1219725878
H  H133  1  0.29540000  0.84600000  0.14900000  1.0 0.1300370828
H  H134  1  0.24220000  0.79650000  0.04650000  1.0 0.1219725878
H  H135  1  0.29200000  0.87940000  0.09670000  1.0 0.1219725878
H  H136  1  0.75560000  0.23590000  0.10030000  1.0 0.1300370828
H  H137  1  0.73710000  0.08650000  0.05450000  1.0 0.1219725878
H  H138  1  0.70460000  0.15400000  0.14900000  1.0 0.1300370828
H  H139  1  0.75780000  0.20350000  0.04650000  1.0 0.1219725878
H  H140  1  0.70800000  0.12060000  0.09670000  1.0 0.1219725878
H  H141  1  0.89970000  0.75560000  0.76410000  1.0 0.1300370828
H  H142  1  0.94550000  0.73710000  0.91350000  1.0 0.1219725878
H  H143  1  0.85100000  0.70460000  0.84600000  1.0 0.1300370828
H  H144  1  0.95350000  0.75780000  0.79650000  1.0 0.1219725878
H  H145  1  0.90330000  0.70800000  0.87940000  1.0 0.1219725878
H  H146  1  0.89970000  0.24440000  0.23590000  1.0 0.1300370828
H  H147  1  0.94550000  0.26290000  0.08650000  1.0 0.1219725878
H  H148  1  0.85100000  0.29540000  0.15400000  1.0 0.1300370828
H  H149  1  0.95350000  0.24220000  0.20350000  1.0 0.1219725878
H  H150  1  0.90330000  0.29200000  0.12060000  1.0 0.1219725878
H  H151  1  0.10030000  0.24440000  0.76410000  1.0 0.1300370828
H  H152  1  0.05450000  0.26290000  0.91350000  1.0 0.1219725878
H  H153  1  0.14900000  0.29540000  0.84600000  1.0 0.1300370828
H  H154  1  0.04650000  0.24220000  0.79650000  1.0 0.1219725878
H  H155  1  0.09670000  0.29200000  0.87940000  1.0 0.1219725878
H  H156  1  0.10030000  0.75560000  0.23590000  1.0 0.1300370828
H  H157  1  0.05450000  0.73710000  0.08650000  1.0 0.1219725878
H  H158  1  0.14900000  0.70460000  0.15400000  1.0 0.1300370828
H  H159  1  0.04650000  0.75780000  0.20350000  1.0 0.1219725878
H  H160  1  0.09670000  0.70800000  0.12060000  1.0 0.1219725878
H  H161  1  0.76410000  0.89970000  0.75560000  1.0 0.1300370828
H  H162  1  0.91350000  0.94550000  0.73710000  1.0 0.1219725878
H  H163  1  0.84600000  0.85100000  0.70460000  1.0 0.1300370828
H  H164  1  0.79650000  0.95350000  0.75780000  1.0 0.1219725878
H  H165  1  0.87940000  0.90330000  0.70800000  1.0 0.1219725878
H  H166  1  0.23590000  0.89970000  0.24440000  1.0 0.1300370828
H  H167  1  0.08650000  0.94550000  0.26290000  1.0 0.1219725878
H  H168  1  0.15400000  0.85100000  0.29540000  1.0 0.1300370828
H  H169  1  0.20350000  0.95350000  0.24220000  1.0 0.1219725878
H  H170  1  0.12060000  0.90330000  0.29200000  1.0 0.1219725878
H  H171  1  0.76410000  0.10030000  0.24440000  1.0 0.1300370828
H  H172  1  0.91350000  0.05450000  0.26290000  1.0 0.1219725878
H  H173  1  0.84600000  0.14900000  0.29540000  1.0 0.1300370828
H  H174  1  0.79650000  0.04650000  0.24220000  1.0 0.1219725878
H  H175  1  0.87940000  0.09670000  0.29200000  1.0 0.1219725878
H  H176  1  0.23590000  0.10030000  0.75560000  1.0 0.1300370828
H  H177  1  0.08650000  0.05450000  0.73710000  1.0 0.1219725878
H  H178  1  0.15400000  0.14900000  0.70460000  1.0 0.1300370828
H  H179  1  0.20350000  0.04650000  0.75780000  1.0 0.1219725878
H  H180  1  0.12060000  0.09670000  0.70800000  1.0 0.1219725878
H  H181  1  0.26410000  0.25560000  0.60030000  1.0 0.1300370828
H  H182  1  0.41350000  0.23710000  0.55450000  1.0 0.1219725878
H  H183  1  0.34600000  0.20460000  0.64900000  1.0 0.1300370828
H  H184  1  0.29650000  0.25780000  0.54650000  1.0 0.1219725878
H  H185  1  0.37940000  0.20800000  0.59670000  1.0 0.1219725878
H  H186  1  0.73590000  0.74440000  0.60030000  1.0 0.1300370828
H  H187  1  0.58650000  0.76290000  0.55450000  1.0 0.1219725878
H  H188  1  0.65400000  0.79540000  0.64900000  1.0 0.1300370828
H  H189  1  0.70350000  0.74220000  0.54650000  1.0 0.1219725878
H  H190  1  0.62060000  0.79200000  0.59670000  1.0 0.1219725878
H  H191  1  0.26410000  0.74440000  0.39970000  1.0 0.1300370828
H  H192  1  0.41350000  0.76290000  0.44550000  1.0 0.1219725878
H  H193  1  0.34600000  0.79540000  0.35100000  1.0 0.1300370828
H  H194  1  0.29650000  0.74220000  0.45350000  1.0 0.1219725878
H  H195  1  0.37940000  0.79200000  0.40330000  1.0 0.1219725878
H  H196  1  0.73590000  0.25560000  0.39970000  1.0 0.1300370828
H  H197  1  0.58650000  0.23710000  0.44550000  1.0 0.1219725878
H  H198  1  0.65400000  0.20460000  0.35100000  1.0 0.1300370828
H  H199  1  0.70350000  0.25780000  0.45350000  1.0 0.1219725878
H  H200  1  0.62060000  0.20800000  0.40330000  1.0 0.1219725878
H  H201  1  0.25560000  0.39970000  0.73590000  1.0 0.1300370828
H  H202  1  0.23710000  0.44550000  0.58650000  1.0 0.1219725878
H  H203  1  0.20460000  0.35100000  0.65400000  1.0 0.1300370828
H  H204  1  0.25780000  0.45350000  0.70350000  1.0 0.1219725878
H  H205  1  0.20800000  0.40330000  0.62060000  1.0 0.1219725878
H  H206  1  0.74440000  0.39970000  0.26410000  1.0 0.1300370828
H  H207  1  0.76290000  0.44550000  0.41350000  1.0 0.1219725878
H  H208  1  0.79540000  0.35100000  0.34600000  1.0 0.1300370828
H  H209  1  0.74220000  0.45350000  0.29650000  1.0 0.1219725878
H  H210  1  0.79200000  0.40330000  0.37940000  1.0 0.1219725878
H  H211  1  0.74440000  0.60030000  0.73590000  1.0 0.1300370828
H  H212  1  0.76290000  0.55450000  0.58650000  1.0 0.1219725878
H  H213  1  0.79540000  0.64900000  0.65400000  1.0 0.1300370828
H  H214  1  0.74220000  0.54650000  0.70350000  1.0 0.1219725878
H  H215  1  0.79200000  0.59670000  0.62060000  1.0 0.1219725878
H  H216  1  0.25560000  0.60030000  0.26410000  1.0 0.1300370828
H  H217  1  0.23710000  0.55450000  0.41350000  1.0 0.1219725878
H  H218  1  0.20460000  0.64900000  0.34600000  1.0 0.1300370828
H  H219  1  0.25780000  0.54650000  0.29650000  1.0 0.1219725878
H  H220  1  0.20800000  0.59670000  0.37940000  1.0 0.1219725878
H  H221  1  0.39970000  0.26410000  0.74440000  1.0 0.1300370828
H  H222  1  0.44550000  0.41350000  0.76290000  1.0 0.1219725878
H  H223  1  0.35100000  0.34600000  0.79540000  1.0 0.1300370828
H  H224  1  0.45350000  0.29650000  0.74220000  1.0 0.1219725878
H  H225  1  0.40330000  0.37940000  0.79200000  1.0 0.1219725878
H  H226  1  0.39970000  0.73590000  0.25560000  1.0 0.1300370828
H  H227  1  0.44550000  0.58650000  0.23710000  1.0 0.1219725878
H  H228  1  0.35100000  0.65400000  0.20460000  1.0 0.1300370828
H  H229  1  0.45350000  0.70350000  0.25780000  1.0 0.1219725878
H  H230  1  0.40330000  0.62060000  0.20800000  1.0 0.1219725878
H  H231  1  0.60030000  0.26410000  0.25560000  1.0 0.1300370828
H  H232  1  0.55450000  0.41350000  0.23710000  1.0 0.1219725878
H  H233  1  0.64900000  0.34600000  0.20460000  1.0 0.1300370828
H  H234  1  0.54650000  0.29650000  0.25780000  1.0 0.1219725878
H  H235  1  0.59670000  0.37940000  0.20800000  1.0 0.1219725878
H  H236  1  0.60030000  0.73590000  0.74440000  1.0 0.1300370828
H  H237  1  0.55450000  0.58650000  0.76290000  1.0 0.1219725878
H  H238  1  0.64900000  0.65400000  0.79540000  1.0 0.1300370828
H  H239  1  0.54650000  0.70350000  0.74220000  1.0 0.1219725878
H  H240  1  0.59670000  0.62060000  0.79200000  1.0 0.1219725878
C  C1  1  0.27070000  0.21943000  0.16587000  1.0 0.6139878588
C  C2  1  0.25409000  0.21240000  0.09974000  1.0 -0.0971107865
C  C3  1  0.26888000  0.19879000  0.13031000  1.0 -0.0297493106
C  C4  1  0.26370000  0.09876000  0.03225000  1.0 -0.250368583
C  C5  1  0.28403000  0.16390000  0.12853000  1.0 -0.0971107865
C  C6  1  0.25264000  0.19307000  0.06729000  1.0 -0.1293962183
C  C7  1  0.26670000  0.15849000  0.06607000  1.0 0.0503815593
C  C8  1  0.26550000  0.13669000  0.03126000  1.0 0.2119980638
C  C9  1  0.28240000  0.14416000  0.09723000  1.0 -0.1493379551
C  C10  1  0.26100000  0.02018000  0.02861000  1.0 -0.0853324634
C  C11  1  0.72930000  0.78057000  0.16587000  1.0 0.6139878588
C  C12  1  0.74591000  0.78760000  0.09974000  1.0 -0.0971107865
C  C13  1  0.73112000  0.80121000  0.13031000  1.0 -0.0297493106
C  C14  1  0.73630000  0.90124000  0.03225000  1.0 -0.250368583
C  C15  1  0.71597000  0.83610000  0.12853000  1.0 -0.0971107865
C  C16  1  0.74736000  0.80693000  0.06729000  1.0 -0.1293962183
C  C17  1  0.73330000  0.84151000  0.06607000  1.0 0.0503815593
C  C18  1  0.73450000  0.86331000  0.03126000  1.0 0.2119980638
C  C19  1  0.71760000  0.85584000  0.09723000  1.0 -0.1493379551
C  C20  1  0.73900000  0.97982000  0.02861000  1.0 -0.08389685
C  C21  1  0.72930000  0.21943000  0.83413000  1.0 0.6139878588
C  C22  1  0.74591000  0.21240000  0.90026000  1.0 -0.0971107865
C  C23  1  0.73112000  0.19879000  0.86969000  1.0 -0.0297493106
C  C24  1  0.73630000  0.09876000  0.96775000  1.0 -0.250368583
C  C25  1  0.71597000  0.16390000  0.87147000  1.0 -0.0971107865
C  C26  1  0.74736000  0.19307000  0.93271000  1.0 -0.1293962183
C  C27  1  0.73330000  0.15849000  0.93393000  1.0 0.0503815593
C  C28  1  0.73450000  0.13669000  0.96874000  1.0 0.2119980638
C  C29  1  0.71760000  0.14416000  0.90277000  1.0 -0.1493379551
C  C30  1  0.73900000  0.02018000  0.97139000  1.0 -0.0853324634
C  C31  1  0.27070000  0.78057000  0.83413000  1.0 0.6139878588
C  C32  1  0.25409000  0.78760000  0.90026000  1.0 -0.0971107865
C  C33  1  0.26888000  0.80121000  0.86969000  1.0 -0.0297493106
C  C34  1  0.26370000  0.90124000  0.96775000  1.0 -0.250368583
C  C35  1  0.28403000  0.83610000  0.87147000  1.0 -0.0971107865
C  C36  1  0.25264000  0.80693000  0.93271000  1.0 -0.1293962183
C  C37  1  0.26670000  0.84151000  0.93393000  1.0 0.0503815593
C  C38  1  0.26550000  0.86331000  0.96874000  1.0 0.2119980638
C  C39  1  0.28240000  0.85584000  0.90277000  1.0 -0.1493379551
C  C40  1  0.26100000  0.97982000  0.97139000  1.0 -0.0853324634
C  C41  1  0.16587000  0.27070000  0.21943000  1.0 0.6139878588
C  C42  1  0.09974000  0.25409000  0.21240000  1.0 -0.0971107865
C  C43  1  0.13031000  0.26888000  0.19879000  1.0 -0.0297493106
C  C44  1  0.03225000  0.26370000  0.09876000  1.0 -0.250368583
C  C45  1  0.12853000  0.28403000  0.16390000  1.0 -0.0971107865
C  C46  1  0.06729000  0.25264000  0.19307000  1.0 -0.1293962183
C  C47  1  0.06607000  0.26670000  0.15849000  1.0 0.0503815593
C  C48  1  0.03126000  0.26550000  0.13669000  1.0 0.2119980638
C  C49  1  0.09723000  0.28240000  0.14416000  1.0 -0.1493379551
C  C50  1  0.02861000  0.26100000  0.02018000  1.0 -0.0853324634
C  C51  1  0.16587000  0.72930000  0.78057000  1.0 0.6139878588
C  C52  1  0.09974000  0.74591000  0.78760000  1.0 -0.0971107865
C  C53  1  0.13031000  0.73112000  0.80121000  1.0 -0.0297493106
C  C54  1  0.03225000  0.73630000  0.90124000  1.0 -0.250368583
C  C55  1  0.12853000  0.71597000  0.83610000  1.0 -0.0971107865
C  C56  1  0.06729000  0.74736000  0.80693000  1.0 -0.1293962183
C  C57  1  0.06607000  0.73330000  0.84151000  1.0 0.0503815593
C  C58  1  0.03126000  0.73450000  0.86331000  1.0 0.2119980638
C  C59  1  0.09723000  0.71760000  0.85584000  1.0 -0.1493379551
C  C60  1  0.02861000  0.73900000  0.97982000  1.0 -0.0853324634
C  C61  1  0.83413000  0.72930000  0.21943000  1.0 0.6139878588
C  C62  1  0.90026000  0.74591000  0.21240000  1.0 -0.0971107865
C  C63  1  0.86969000  0.73112000  0.19879000  1.0 -0.0297493106
C  C64  1  0.96775000  0.73630000  0.09876000  1.0 -0.250368583
C  C65  1  0.87147000  0.71597000  0.16390000  1.0 -0.0971107865
C  C66  1  0.93271000  0.74736000  0.19307000  1.0 -0.1293962183
C  C67  1  0.93393000  0.73330000  0.15849000  1.0 0.0503815593
C  C68  1  0.96874000  0.73450000  0.13669000  1.0 0.2119980638
C  C69  1  0.90277000  0.71760000  0.14416000  1.0 -0.1493379551
C  C70  1  0.97139000  0.73900000  0.02018000  1.0 -0.08389685
C  C71  1  0.83413000  0.27070000  0.78057000  1.0 0.6139878588
C  C72  1  0.90026000  0.25409000  0.78760000  1.0 -0.0971107865
C  C73  1  0.86969000  0.26888000  0.80121000  1.0 -0.0297493106
C  C74  1  0.96775000  0.26370000  0.90124000  1.0 -0.250368583
C  C75  1  0.87147000  0.28403000  0.83610000  1.0 -0.0971107865
C  C76  1  0.93271000  0.25264000  0.80693000  1.0 -0.1293962183
C  C77  1  0.93393000  0.26670000  0.84151000  1.0 0.0503815593
C  C78  1  0.96874000  0.26550000  0.86331000  1.0 0.2119980638
C  C79  1  0.90277000  0.28240000  0.85584000  1.0 -0.1493379551
C  C80  1  0.97139000  0.26100000  0.97982000  1.0 -0.08389685
C  C81  1  0.21943000  0.16587000  0.27070000  1.0 0.6139878588
C  C82  1  0.21240000  0.09974000  0.25409000  1.0 -0.0971107865
C  C83  1  0.19879000  0.13031000  0.26888000  1.0 -0.0297493106
C  C84  1  0.09876000  0.03225000  0.26370000  1.0 -0.250368583
C  C85  1  0.16390000  0.12853000  0.28403000  1.0 -0.0971107865
C  C86  1  0.19307000  0.06729000  0.25264000  1.0 -0.1293962183
C  C87  1  0.15849000  0.06607000  0.26670000  1.0 0.0503815593
C  C88  1  0.13669000  0.03126000  0.26550000  1.0 0.2119980638
C  C89  1  0.14416000  0.09723000  0.28240000  1.0 -0.1493379551
C  C90  1  0.02018000  0.02861000  0.26100000  1.0 -0.0853324634
C  C91  1  0.78057000  0.16587000  0.72930000  1.0 0.6139878588
C  C92  1  0.78760000  0.09974000  0.74591000  1.0 -0.0971107865
C  C93  1  0.80121000  0.13031000  0.73112000  1.0 -0.0297493106
C  C94  1  0.90124000  0.03225000  0.73630000  1.0 -0.250368583
C  C95  1  0.83610000  0.12853000  0.71597000  1.0 -0.0971107865
C  C96  1  0.80693000  0.06729000  0.74736000  1.0 -0.1293962183
C  C97  1  0.84151000  0.06607000  0.73330000  1.0 0.0503815593
C  C98  1  0.86331000  0.03126000  0.73450000  1.0 0.2119980638
C  C99  1  0.85584000  0.09723000  0.71760000  1.0 -0.1493379551
C  C100  1  0.97982000  0.02861000  0.73900000  1.0 -0.08389685
C  C101  1  0.21943000  0.83413000  0.72930000  1.0 0.6139878588
C  C102  1  0.21240000  0.90026000  0.74591000  1.0 -0.0971107865
C  C103  1  0.19879000  0.86969000  0.73112000  1.0 -0.0297493106
C  C104  1  0.09876000  0.96775000  0.73630000  1.0 -0.250368583
C  C105  1  0.16390000  0.87147000  0.71597000  1.0 -0.0971107865
C  C106  1  0.19307000  0.93271000  0.74736000  1.0 -0.1293962183
C  C107  1  0.15849000  0.93393000  0.73330000  1.0 0.0503815593
C  C108  1  0.13669000  0.96874000  0.73450000  1.0 0.2119980638
C  C109  1  0.14416000  0.90277000  0.71760000  1.0 -0.1493379551
C  C110  1  0.02018000  0.97139000  0.73900000  1.0 -0.08389685
C  C111  1  0.78057000  0.83413000  0.27070000  1.0 0.6139878588
C  C112  1  0.78760000  0.90026000  0.25409000  1.0 -0.0971107865
C  C113  1  0.80121000  0.86969000  0.26888000  1.0 -0.0297493106
C  C114  1  0.90124000  0.96775000  0.26370000  1.0 -0.250368583
C  C115  1  0.83610000  0.87147000  0.28403000  1.0 -0.0971107865
C  C116  1  0.80693000  0.93271000  0.25264000  1.0 -0.1293962183
C  C117  1  0.84151000  0.93393000  0.26670000  1.0 0.0503815593
C  C118  1  0.86331000  0.96874000  0.26550000  1.0 0.2119980638
C  C119  1  0.85584000  0.90277000  0.28240000  1.0 -0.1493379551
C  C120  1  0.97982000  0.97139000  0.26100000  1.0 -0.08389685
C  C121  1  0.71943000  0.77070000  0.33413000  1.0 0.6139878588
C  C122  1  0.71240000  0.75409000  0.40026000  1.0 -0.0971107865
C  C123  1  0.69879000  0.76888000  0.36969000  1.0 -0.0297493106
C  C124  1  0.59876000  0.76370000  0.46775000  1.0 -0.250368583
C  C125  1  0.66390000  0.78403000  0.37147000  1.0 -0.0971107865
C  C126  1  0.69307000  0.75264000  0.43271000  1.0 -0.1293962183
C  C127  1  0.65849000  0.76670000  0.43393000  1.0 0.0503815593
C  C128  1  0.63669000  0.76550000  0.46874000  1.0 0.2119980638
C  C129  1  0.64416000  0.78240000  0.40277000  1.0 -0.1493379551
C  C130  1  0.52018000  0.76100000  0.47139000  1.0 -0.08389685
C  C131  1  0.28057000  0.22930000  0.33413000  1.0 0.6139878588
C  C132  1  0.28760000  0.24591000  0.40026000  1.0 -0.0971107865
C  C133  1  0.30121000  0.23112000  0.36969000  1.0 -0.0297493106
C  C134  1  0.40124000  0.23630000  0.46775000  1.0 -0.250368583
C  C135  1  0.33610000  0.21597000  0.37147000  1.0 -0.0971107865
C  C136  1  0.30693000  0.24736000  0.43271000  1.0 -0.1293962183
C  C137  1  0.34151000  0.23330000  0.43393000  1.0 0.0503815593
C  C138  1  0.36331000  0.23450000  0.46874000  1.0 0.2119980638
C  C139  1  0.35584000  0.21760000  0.40277000  1.0 -0.1493379551
C  C140  1  0.47982000  0.23900000  0.47139000  1.0 -0.08389685
C  C141  1  0.71943000  0.22930000  0.66587000  1.0 0.6139878588
C  C142  1  0.71240000  0.24591000  0.59974000  1.0 -0.0971107865
C  C143  1  0.69879000  0.23112000  0.63031000  1.0 -0.0297493106
C  C144  1  0.59876000  0.23630000  0.53225000  1.0 -0.250368583
C  C145  1  0.66390000  0.21597000  0.62853000  1.0 -0.0971107865
C  C146  1  0.69307000  0.24736000  0.56729000  1.0 -0.1293962183
C  C147  1  0.65849000  0.23330000  0.56607000  1.0 0.0503815593
C  C148  1  0.63669000  0.23450000  0.53126000  1.0 0.2119980638
C  C149  1  0.64416000  0.21760000  0.59723000  1.0 -0.1493379551
C  C150  1  0.52018000  0.23900000  0.52861000  1.0 -0.08389685
C  C151  1  0.28057000  0.77070000  0.66587000  1.0 0.6139878588
C  C152  1  0.28760000  0.75409000  0.59974000  1.0 -0.0971107865
C  C153  1  0.30121000  0.76888000  0.63031000  1.0 -0.0297493106
C  C154  1  0.40124000  0.76370000  0.53225000  1.0 -0.250368583
C  C155  1  0.33610000  0.78403000  0.62853000  1.0 -0.0971107865
C  C156  1  0.30693000  0.75264000  0.56729000  1.0 -0.1293962183
C  C157  1  0.34151000  0.76670000  0.56607000  1.0 0.0503815593
C  C158  1  0.36331000  0.76550000  0.53126000  1.0 0.2119980638
C  C159  1  0.35584000  0.78240000  0.59723000  1.0 -0.1493379551
C  C160  1  0.47982000  0.76100000  0.52861000  1.0 -0.08389685
C  C161  1  0.77070000  0.66587000  0.28057000  1.0 0.6139878588
C  C162  1  0.75409000  0.59974000  0.28760000  1.0 -0.0971107865
C  C163  1  0.76888000  0.63031000  0.30121000  1.0 -0.0297493106
C  C164  1  0.76370000  0.53225000  0.40124000  1.0 -0.250368583
C  C165  1  0.78403000  0.62853000  0.33610000  1.0 -0.0971107865
C  C166  1  0.75264000  0.56729000  0.30693000  1.0 -0.1293962183
C  C167  1  0.76670000  0.56607000  0.34151000  1.0 0.0503815593
C  C168  1  0.76550000  0.53126000  0.36331000  1.0 0.2119980638
C  C169  1  0.78240000  0.59723000  0.35584000  1.0 -0.1493379551
C  C170  1  0.76100000  0.52861000  0.47982000  1.0 -0.08389685
C  C171  1  0.22930000  0.66587000  0.71943000  1.0 0.6139878588
C  C172  1  0.24591000  0.59974000  0.71240000  1.0 -0.0971107865
C  C173  1  0.23112000  0.63031000  0.69879000  1.0 -0.0297493106
C  C174  1  0.23630000  0.53225000  0.59876000  1.0 -0.250368583
C  C175  1  0.21597000  0.62853000  0.66390000  1.0 -0.0971107865
C  C176  1  0.24736000  0.56729000  0.69307000  1.0 -0.1293962183
C  C177  1  0.23330000  0.56607000  0.65849000  1.0 0.0503815593
C  C178  1  0.23450000  0.53126000  0.63669000  1.0 0.2119980638
C  C179  1  0.21760000  0.59723000  0.64416000  1.0 -0.1493379551
C  C180  1  0.23900000  0.52861000  0.52018000  1.0 -0.0853324634
C  C181  1  0.22930000  0.33413000  0.28057000  1.0 0.6139878588
C  C182  1  0.24591000  0.40026000  0.28760000  1.0 -0.0971107865
C  C183  1  0.23112000  0.36969000  0.30121000  1.0 -0.0297493106
C  C184  1  0.23630000  0.46775000  0.40124000  1.0 -0.250368583
C  C185  1  0.21597000  0.37147000  0.33610000  1.0 -0.0971107865
C  C186  1  0.24736000  0.43271000  0.30693000  1.0 -0.1293962183
C  C187  1  0.23330000  0.43393000  0.34151000  1.0 0.0503815593
C  C188  1  0.23450000  0.46874000  0.36331000  1.0 0.2119980638
C  C189  1  0.21760000  0.40277000  0.35584000  1.0 -0.1493379551
C  C190  1  0.23900000  0.47139000  0.47982000  1.0 -0.0853324634
C  C191  1  0.77070000  0.33413000  0.71943000  1.0 0.6139878588
C  C192  1  0.75409000  0.40026000  0.71240000  1.0 -0.0971107865
C  C193  1  0.76888000  0.36969000  0.69879000  1.0 -0.0297493106
C  C194  1  0.76370000  0.46775000  0.59876000  1.0 -0.250368583
C  C195  1  0.78403000  0.37147000  0.66390000  1.0 -0.0971107865
C  C196  1  0.75264000  0.43271000  0.69307000  1.0 -0.1293962183
C  C197  1  0.76670000  0.43393000  0.65849000  1.0 0.0503815593
C  C198  1  0.76550000  0.46874000  0.63669000  1.0 0.2119980638
C  C199  1  0.78240000  0.40277000  0.64416000  1.0 -0.1493379551
C  C200  1  0.76100000  0.47139000  0.52018000  1.0 -0.08389685
C  C201  1  0.66587000  0.71943000  0.22930000  1.0 0.6139878588
C  C202  1  0.59974000  0.71240000  0.24591000  1.0 -0.0971107865
C  C203  1  0.63031000  0.69879000  0.23112000  1.0 -0.0297493106
C  C204  1  0.53225000  0.59876000  0.23630000  1.0 -0.250368583
C  C205  1  0.62853000  0.66390000  0.21597000  1.0 -0.0971107865
C  C206  1  0.56729000  0.69307000  0.24736000  1.0 -0.1293962183
C  C207  1  0.56607000  0.65849000  0.23330000  1.0 0.0503815593
C  C208  1  0.53126000  0.63669000  0.23450000  1.0 0.2119980638
C  C209  1  0.59723000  0.64416000  0.21760000  1.0 -0.1493379551
C  C210  1  0.52861000  0.52018000  0.23900000  1.0 -0.0853324634
C  C211  1  0.66587000  0.28057000  0.77070000  1.0 0.6139878588
C  C212  1  0.59974000  0.28760000  0.75409000  1.0 -0.0971107865
C  C213  1  0.63031000  0.30121000  0.76888000  1.0 -0.0297493106
C  C214  1  0.53225000  0.40124000  0.76370000  1.0 -0.250368583
C  C215  1  0.62853000  0.33610000  0.78403000  1.0 -0.0971107865
C  C216  1  0.56729000  0.30693000  0.75264000  1.0 -0.1293962183
C  C217  1  0.56607000  0.34151000  0.76670000  1.0 0.0503815593
C  C218  1  0.53126000  0.36331000  0.76550000  1.0 0.2119980638
C  C219  1  0.59723000  0.35584000  0.78240000  1.0 -0.1493379551
C  C220  1  0.52861000  0.47982000  0.76100000  1.0 -0.08389685
C  C221  1  0.33413000  0.71943000  0.77070000  1.0 0.6139878588
C  C222  1  0.40026000  0.71240000  0.75409000  1.0 -0.0971107865
C  C223  1  0.36969000  0.69879000  0.76888000  1.0 -0.0297493106
C  C224  1  0.46775000  0.59876000  0.76370000  1.0 -0.250368583
C  C225  1  0.37147000  0.66390000  0.78403000  1.0 -0.0971107865
C  C226  1  0.43271000  0.69307000  0.75264000  1.0 -0.1293962183
C  C227  1  0.43393000  0.65849000  0.76670000  1.0 0.0503815593
C  C228  1  0.46874000  0.63669000  0.76550000  1.0 0.2119980638
C  C229  1  0.40277000  0.64416000  0.78240000  1.0 -0.1493379551
C  C230  1  0.47139000  0.52018000  0.76100000  1.0 -0.08389685
C  C231  1  0.33413000  0.28057000  0.22930000  1.0 0.6139878588
C  C232  1  0.40026000  0.28760000  0.24591000  1.0 -0.0971107865
C  C233  1  0.36969000  0.30121000  0.23112000  1.0 -0.0297493106
C  C234  1  0.46775000  0.40124000  0.23630000  1.0 -0.250368583
C  C235  1  0.37147000  0.33610000  0.21597000  1.0 -0.0971107865
C  C236  1  0.43271000  0.30693000  0.24736000  1.0 -0.1293962183
C  C237  1  0.43393000  0.34151000  0.23330000  1.0 0.0503815593
C  C238  1  0.46874000  0.36331000  0.23450000  1.0 0.2119980638
C  C239  1  0.40277000  0.35584000  0.21760000  1.0 -0.1493379551
C  C240  1  0.47139000  0.47982000  0.23900000  1.0 -0.0853324634
C  C241  1  0.72930000  0.78057000  0.83413000  1.0 0.6139878588
C  C242  1  0.74591000  0.78760000  0.90026000  1.0 -0.0971107865
C  C243  1  0.73112000  0.80121000  0.86969000  1.0 -0.0297493106
C  C244  1  0.73630000  0.90124000  0.96775000  1.0 -0.250368583
C  C245  1  0.71597000  0.83610000  0.87147000  1.0 -0.0971107865
C  C246  1  0.74736000  0.80693000  0.93271000  1.0 -0.1293962183
C  C247  1  0.73330000  0.84151000  0.93393000  1.0 0.0503815593
C  C248  1  0.73450000  0.86331000  0.96874000  1.0 0.2119980638
C  C249  1  0.71760000  0.85584000  0.90277000  1.0 -0.1493379551
C  C250  1  0.73900000  0.97982000  0.97139000  1.0 -0.0853324634
C  C251  1  0.27070000  0.21943000  0.83413000  1.0 0.6139878588
C  C252  1  0.25409000  0.21240000  0.90026000  1.0 -0.0971107865
C  C253  1  0.26888000  0.19879000  0.86969000  1.0 -0.0297493106
C  C254  1  0.26370000  0.09876000  0.96775000  1.0 -0.250368583
C  C255  1  0.28403000  0.16390000  0.87147000  1.0 -0.0971107865
C  C256  1  0.25264000  0.19307000  0.93271000  1.0 -0.1293962183
C  C257  1  0.26670000  0.15849000  0.93393000  1.0 0.0503815593
C  C258  1  0.26550000  0.13669000  0.96874000  1.0 0.2119980638
C  C259  1  0.28240000  0.14416000  0.90277000  1.0 -0.1493379551
C  C260  1  0.26100000  0.02018000  0.97139000  1.0 -0.0853324634
C  C261  1  0.27070000  0.78057000  0.16587000  1.0 0.6139878588
C  C262  1  0.25409000  0.78760000  0.09974000  1.0 -0.0971107865
C  C263  1  0.26888000  0.80121000  0.13031000  1.0 -0.0297493106
C  C264  1  0.26370000  0.90124000  0.03225000  1.0 -0.250368583
C  C265  1  0.28403000  0.83610000  0.12853000  1.0 -0.0971107865
C  C266  1  0.25264000  0.80693000  0.06729000  1.0 -0.1293962183
C  C267  1  0.26670000  0.84151000  0.06607000  1.0 0.0503815593
C  C268  1  0.26550000  0.86331000  0.03126000  1.0 0.2119980638
C  C269  1  0.28240000  0.85584000  0.09723000  1.0 -0.1493379551
C  C270  1  0.26100000  0.97982000  0.02861000  1.0 -0.0853324634
C  C271  1  0.72930000  0.21943000  0.16587000  1.0 0.6139878588
C  C272  1  0.74591000  0.21240000  0.09974000  1.0 -0.0971107865
C  C273  1  0.73112000  0.19879000  0.13031000  1.0 -0.0297493106
C  C274  1  0.73630000  0.09876000  0.03225000  1.0 -0.250368583
C  C275  1  0.71597000  0.16390000  0.12853000  1.0 -0.0971107865
C  C276  1  0.74736000  0.19307000  0.06729000  1.0 -0.1293962183
C  C277  1  0.73330000  0.15849000  0.06607000  1.0 0.0503815593
C  C278  1  0.73450000  0.13669000  0.03126000  1.0 0.2119980638
C  C279  1  0.71760000  0.14416000  0.09723000  1.0 -0.1493379551
C  C280  1  0.73900000  0.02018000  0.02861000  1.0 -0.08389685
C  C281  1  0.83413000  0.72930000  0.78057000  1.0 0.6139878588
C  C282  1  0.90026000  0.74591000  0.78760000  1.0 -0.0971107865
C  C283  1  0.86969000  0.73112000  0.80121000  1.0 -0.0297493106
C  C284  1  0.96775000  0.73630000  0.90124000  1.0 -0.250368583
C  C285  1  0.87147000  0.71597000  0.83610000  1.0 -0.0971107865
C  C286  1  0.93271000  0.74736000  0.80693000  1.0 -0.1293962183
C  C287  1  0.93393000  0.73330000  0.84151000  1.0 0.0503815593
C  C288  1  0.96874000  0.73450000  0.86331000  1.0 0.2119980638
C  C289  1  0.90277000  0.71760000  0.85584000  1.0 -0.1493379551
C  C290  1  0.97139000  0.73900000  0.97982000  1.0 -0.08389685
C  C291  1  0.83413000  0.27070000  0.21943000  1.0 0.6139878588
C  C292  1  0.90026000  0.25409000  0.21240000  1.0 -0.0971107865
C  C293  1  0.86969000  0.26888000  0.19879000  1.0 -0.0297493106
C  C294  1  0.96775000  0.26370000  0.09876000  1.0 -0.250368583
C  C295  1  0.87147000  0.28403000  0.16390000  1.0 -0.0971107865
C  C296  1  0.93271000  0.25264000  0.19307000  1.0 -0.1293962183
C  C297  1  0.93393000  0.26670000  0.15849000  1.0 0.0503815593
C  C298  1  0.96874000  0.26550000  0.13669000  1.0 0.2119980638
C  C299  1  0.90277000  0.28240000  0.14416000  1.0 -0.1493379551
C  C300  1  0.97139000  0.26100000  0.02018000  1.0 -0.08389685
C  C301  1  0.16587000  0.27070000  0.78057000  1.0 0.6139878588
C  C302  1  0.09974000  0.25409000  0.78760000  1.0 -0.0971107865
C  C303  1  0.13031000  0.26888000  0.80121000  1.0 -0.0297493106
C  C304  1  0.03225000  0.26370000  0.90124000  1.0 -0.250368583
C  C305  1  0.12853000  0.28403000  0.83610000  1.0 -0.0971107865
C  C306  1  0.06729000  0.25264000  0.80693000  1.0 -0.1293962183
C  C307  1  0.06607000  0.26670000  0.84151000  1.0 0.0503815593
C  C308  1  0.03126000  0.26550000  0.86331000  1.0 0.2119980638
C  C309  1  0.09723000  0.28240000  0.85584000  1.0 -0.1493379551
C  C310  1  0.02861000  0.26100000  0.97982000  1.0 -0.0853324634
C  C311  1  0.16587000  0.72930000  0.21943000  1.0 0.6139878588
C  C312  1  0.09974000  0.74591000  0.21240000  1.0 -0.0971107865
C  C313  1  0.13031000  0.73112000  0.19879000  1.0 -0.0297493106
C  C314  1  0.03225000  0.73630000  0.09876000  1.0 -0.250368583
C  C315  1  0.12853000  0.71597000  0.16390000  1.0 -0.0971107865
C  C316  1  0.06729000  0.74736000  0.19307000  1.0 -0.1293962183
C  C317  1  0.06607000  0.73330000  0.15849000  1.0 0.0503815593
C  C318  1  0.03126000  0.73450000  0.13669000  1.0 0.2119980638
C  C319  1  0.09723000  0.71760000  0.14416000  1.0 -0.1493379551
C  C320  1  0.02861000  0.73900000  0.02018000  1.0 -0.0853324634
C  C321  1  0.78057000  0.83413000  0.72930000  1.0 0.6139878588
C  C322  1  0.78760000  0.90026000  0.74591000  1.0 -0.0971107865
C  C323  1  0.80121000  0.86969000  0.73112000  1.0 -0.0297493106
C  C324  1  0.90124000  0.96775000  0.73630000  1.0 -0.250368583
C  C325  1  0.83610000  0.87147000  0.71597000  1.0 -0.0971107865
C  C326  1  0.80693000  0.93271000  0.74736000  1.0 -0.1293962183
C  C327  1  0.84151000  0.93393000  0.73330000  1.0 0.0503815593
C  C328  1  0.86331000  0.96874000  0.73450000  1.0 0.2119980638
C  C329  1  0.85584000  0.90277000  0.71760000  1.0 -0.1493379551
C  C330  1  0.97982000  0.97139000  0.73900000  1.0 -0.08389685
C  C331  1  0.21943000  0.83413000  0.27070000  1.0 0.6139878588
C  C332  1  0.21240000  0.90026000  0.25409000  1.0 -0.0971107865
C  C333  1  0.19879000  0.86969000  0.26888000  1.0 -0.0297493106
C  C334  1  0.09876000  0.96775000  0.26370000  1.0 -0.250368583
C  C335  1  0.16390000  0.87147000  0.28403000  1.0 -0.0971107865
C  C336  1  0.19307000  0.93271000  0.25264000  1.0 -0.1293962183
C  C337  1  0.15849000  0.93393000  0.26670000  1.0 0.0503815593
C  C338  1  0.13669000  0.96874000  0.26550000  1.0 0.2119980638
C  C339  1  0.14416000  0.90277000  0.28240000  1.0 -0.1493379551
C  C340  1  0.02018000  0.97139000  0.26100000  1.0 -0.0853324634
C  C341  1  0.78057000  0.16587000  0.27070000  1.0 0.6139878588
C  C342  1  0.78760000  0.09974000  0.25409000  1.0 -0.0971107865
C  C343  1  0.80121000  0.13031000  0.26888000  1.0 -0.0297493106
C  C344  1  0.90124000  0.03225000  0.26370000  1.0 -0.250368583
C  C345  1  0.83610000  0.12853000  0.28403000  1.0 -0.0971107865
C  C346  1  0.80693000  0.06729000  0.25264000  1.0 -0.1293962183
C  C347  1  0.84151000  0.06607000  0.26670000  1.0 0.0503815593
C  C348  1  0.86331000  0.03126000  0.26550000  1.0 0.2119980638
C  C349  1  0.85584000  0.09723000  0.28240000  1.0 -0.1493379551
C  C350  1  0.97982000  0.02861000  0.26100000  1.0 -0.08389685
C  C351  1  0.21943000  0.16587000  0.72930000  1.0 0.6139878588
C  C352  1  0.21240000  0.09974000  0.74591000  1.0 -0.0971107865
C  C353  1  0.19879000  0.13031000  0.73112000  1.0 -0.0297493106
C  C354  1  0.09876000  0.03225000  0.73630000  1.0 -0.250368583
C  C355  1  0.16390000  0.12853000  0.71597000  1.0 -0.0971107865
C  C356  1  0.19307000  0.06729000  0.74736000  1.0 -0.1293962183
C  C357  1  0.15849000  0.06607000  0.73330000  1.0 0.0503815593
C  C358  1  0.13669000  0.03126000  0.73450000  1.0 0.2119980638
C  C359  1  0.14416000  0.09723000  0.71760000  1.0 -0.1493379551
C  C360  1  0.02018000  0.02861000  0.73900000  1.0 -0.0853324634
C  C361  1  0.28057000  0.22930000  0.66587000  1.0 0.6139878588
C  C362  1  0.28760000  0.24591000  0.59974000  1.0 -0.0971107865
C  C363  1  0.30121000  0.23112000  0.63031000  1.0 -0.0297493106
C  C364  1  0.40124000  0.23630000  0.53225000  1.0 -0.250368583
C  C365  1  0.33610000  0.21597000  0.62853000  1.0 -0.0971107865
C  C366  1  0.30693000  0.24736000  0.56729000  1.0 -0.1293962183
C  C367  1  0.34151000  0.23330000  0.56607000  1.0 0.0503815593
C  C368  1  0.36331000  0.23450000  0.53126000  1.0 0.2119980638
C  C369  1  0.35584000  0.21760000  0.59723000  1.0 -0.1493379551
C  C370  1  0.47982000  0.23900000  0.52861000  1.0 -0.08389685
C  C371  1  0.71943000  0.77070000  0.66587000  1.0 0.6139878588
C  C372  1  0.71240000  0.75409000  0.59974000  1.0 -0.0971107865
C  C373  1  0.69879000  0.76888000  0.63031000  1.0 -0.0297493106
C  C374  1  0.59876000  0.76370000  0.53225000  1.0 -0.250368583
C  C375  1  0.66390000  0.78403000  0.62853000  1.0 -0.0971107865
C  C376  1  0.69307000  0.75264000  0.56729000  1.0 -0.1293962183
C  C377  1  0.65849000  0.76670000  0.56607000  1.0 0.0503815593
C  C378  1  0.63669000  0.76550000  0.53126000  1.0 0.2119980638
C  C379  1  0.64416000  0.78240000  0.59723000  1.0 -0.1493379551
C  C380  1  0.52018000  0.76100000  0.52861000  1.0 -0.08389685
C  C381  1  0.28057000  0.77070000  0.33413000  1.0 0.6139878588
C  C382  1  0.28760000  0.75409000  0.40026000  1.0 -0.0971107865
C  C383  1  0.30121000  0.76888000  0.36969000  1.0 -0.0297493106
C  C384  1  0.40124000  0.76370000  0.46775000  1.0 -0.250368583
C  C385  1  0.33610000  0.78403000  0.37147000  1.0 -0.0971107865
C  C386  1  0.30693000  0.75264000  0.43271000  1.0 -0.1293962183
C  C387  1  0.34151000  0.76670000  0.43393000  1.0 0.0503815593
C  C388  1  0.36331000  0.76550000  0.46874000  1.0 0.2119980638
C  C389  1  0.35584000  0.78240000  0.40277000  1.0 -0.1493379551
C  C390  1  0.47982000  0.76100000  0.47139000  1.0 -0.08389685
C  C391  1  0.71943000  0.22930000  0.33413000  1.0 0.6139878588
C  C392  1  0.71240000  0.24591000  0.40026000  1.0 -0.0971107865
C  C393  1  0.69879000  0.23112000  0.36969000  1.0 -0.0297493106
C  C394  1  0.59876000  0.23630000  0.46775000  1.0 -0.250368583
C  C395  1  0.66390000  0.21597000  0.37147000  1.0 -0.0971107865
C  C396  1  0.69307000  0.24736000  0.43271000  1.0 -0.1293962183
C  C397  1  0.65849000  0.23330000  0.43393000  1.0 0.0503815593
C  C398  1  0.63669000  0.23450000  0.46874000  1.0 0.2119980638
C  C399  1  0.64416000  0.21760000  0.40277000  1.0 -0.1493379551
C  C400  1  0.52018000  0.23900000  0.47139000  1.0 -0.08389685
C  C401  1  0.22930000  0.33413000  0.71943000  1.0 0.6139878588
C  C402  1  0.24591000  0.40026000  0.71240000  1.0 -0.0971107865
C  C403  1  0.23112000  0.36969000  0.69879000  1.0 -0.0297493106
C  C404  1  0.23630000  0.46775000  0.59876000  1.0 -0.250368583
C  C405  1  0.21597000  0.37147000  0.66390000  1.0 -0.0971107865
C  C406  1  0.24736000  0.43271000  0.69307000  1.0 -0.1293962183
C  C407  1  0.23330000  0.43393000  0.65849000  1.0 0.0503815593
C  C408  1  0.23450000  0.46874000  0.63669000  1.0 0.2119980638
C  C409  1  0.21760000  0.40277000  0.64416000  1.0 -0.1493379551
C  C410  1  0.23900000  0.47139000  0.52018000  1.0 -0.0853324634
C  C411  1  0.77070000  0.33413000  0.28057000  1.0 0.6139878588
C  C412  1  0.75409000  0.40026000  0.28760000  1.0 -0.0971107865
C  C413  1  0.76888000  0.36969000  0.30121000  1.0 -0.0297493106
C  C414  1  0.76370000  0.46775000  0.40124000  1.0 -0.250368583
C  C415  1  0.78403000  0.37147000  0.33610000  1.0 -0.0971107865
C  C416  1  0.75264000  0.43271000  0.30693000  1.0 -0.1293962183
C  C417  1  0.76670000  0.43393000  0.34151000  1.0 0.0503815593
C  C418  1  0.76550000  0.46874000  0.36331000  1.0 0.2119980638
C  C419  1  0.78240000  0.40277000  0.35584000  1.0 -0.1493379551
C  C420  1  0.76100000  0.47139000  0.47982000  1.0 -0.08389685
C  C421  1  0.77070000  0.66587000  0.71943000  1.0 0.6139878588
C  C422  1  0.75409000  0.59974000  0.71240000  1.0 -0.0971107865
C  C423  1  0.76888000  0.63031000  0.69879000  1.0 -0.0297493106
C  C424  1  0.76370000  0.53225000  0.59876000  1.0 -0.250368583
C  C425  1  0.78403000  0.62853000  0.66390000  1.0 -0.0971107865
C  C426  1  0.75264000  0.56729000  0.69307000  1.0 -0.1293962183
C  C427  1  0.76670000  0.56607000  0.65849000  1.0 0.0503815593
C  C428  1  0.76550000  0.53126000  0.63669000  1.0 0.2119980638
C  C429  1  0.78240000  0.59723000  0.64416000  1.0 -0.1493379551
C  C430  1  0.76100000  0.52861000  0.52018000  1.0 -0.08389685
C  C431  1  0.22930000  0.66587000  0.28057000  1.0 0.6139878588
C  C432  1  0.24591000  0.59974000  0.28760000  1.0 -0.0971107865
C  C433  1  0.23112000  0.63031000  0.30121000  1.0 -0.0297493106
C  C434  1  0.23630000  0.53225000  0.40124000  1.0 -0.250368583
C  C435  1  0.21597000  0.62853000  0.33610000  1.0 -0.0971107865
C  C436  1  0.24736000  0.56729000  0.30693000  1.0 -0.1293962183
C  C437  1  0.23330000  0.56607000  0.34151000  1.0 0.0503815593
C  C438  1  0.23450000  0.53126000  0.36331000  1.0 0.2119980638
C  C439  1  0.21760000  0.59723000  0.35584000  1.0 -0.1493379551
C  C440  1  0.23900000  0.52861000  0.47982000  1.0 -0.0853324634
C  C441  1  0.33413000  0.28057000  0.77070000  1.0 0.6139878588
C  C442  1  0.40026000  0.28760000  0.75409000  1.0 -0.0971107865
C  C443  1  0.36969000  0.30121000  0.76888000  1.0 -0.0297493106
C  C444  1  0.46775000  0.40124000  0.76370000  1.0 -0.250368583
C  C445  1  0.37147000  0.33610000  0.78403000  1.0 -0.0971107865
C  C446  1  0.43271000  0.30693000  0.75264000  1.0 -0.1293962183
C  C447  1  0.43393000  0.34151000  0.76670000  1.0 0.0503815593
C  C448  1  0.46874000  0.36331000  0.76550000  1.0 0.2119980638
C  C449  1  0.40277000  0.35584000  0.78240000  1.0 -0.1493379551
C  C450  1  0.47139000  0.47982000  0.76100000  1.0 -0.08389685
C  C451  1  0.33413000  0.71943000  0.22930000  1.0 0.6139878588
C  C452  1  0.40026000  0.71240000  0.24591000  1.0 -0.0971107865
C  C453  1  0.36969000  0.69879000  0.23112000  1.0 -0.0297493106
C  C454  1  0.46775000  0.59876000  0.23630000  1.0 -0.250368583
C  C455  1  0.37147000  0.66390000  0.21597000  1.0 -0.0971107865
C  C456  1  0.43271000  0.69307000  0.24736000  1.0 -0.1293962183
C  C457  1  0.43393000  0.65849000  0.23330000  1.0 0.0503815593
C  C458  1  0.46874000  0.63669000  0.23450000  1.0 0.2119980638
C  C459  1  0.40277000  0.64416000  0.21760000  1.0 -0.1493379551
C  C460  1  0.47139000  0.52018000  0.23900000  1.0 -0.0853324634
C  C461  1  0.66587000  0.28057000  0.22930000  1.0 0.6139878588
C  C462  1  0.59974000  0.28760000  0.24591000  1.0 -0.0971107865
C  C463  1  0.63031000  0.30121000  0.23112000  1.0 -0.0297493106
C  C464  1  0.53225000  0.40124000  0.23630000  1.0 -0.250368583
C  C465  1  0.62853000  0.33610000  0.21597000  1.0 -0.0971107865
C  C466  1  0.56729000  0.30693000  0.24736000  1.0 -0.1293962183
C  C467  1  0.56607000  0.34151000  0.23330000  1.0 0.0503815593
C  C468  1  0.53126000  0.36331000  0.23450000  1.0 0.2119980638
C  C469  1  0.59723000  0.35584000  0.21760000  1.0 -0.1493379551
C  C470  1  0.52861000  0.47982000  0.23900000  1.0 -0.0853324634
C  C471  1  0.66587000  0.71943000  0.77070000  1.0 0.6139878588
C  C472  1  0.59974000  0.71240000  0.75409000  1.0 -0.0971107865
C  C473  1  0.63031000  0.69879000  0.76888000  1.0 -0.0297493106
C  C474  1  0.53225000  0.59876000  0.76370000  1.0 -0.250368583
C  C475  1  0.62853000  0.66390000  0.78403000  1.0 -0.0971107865
C  C476  1  0.56729000  0.69307000  0.75264000  1.0 -0.1293962183
C  C477  1  0.56607000  0.65849000  0.76670000  1.0 0.0503815593
C  C478  1  0.53126000  0.63669000  0.76550000  1.0 0.2119980638
C  C479  1  0.59723000  0.64416000  0.78240000  1.0 -0.1493379551
C  C480  1  0.52861000  0.52018000  0.76100000  1.0 -0.08389685
C  C481  1  0.26220000  0.03922000  0.00000000  1.0 0.0296729203
C  C482  1  0.26330000  0.07965000  0.00000000  1.0 0.1300370828
C  C483  1  0.73780000  0.96078000  0.00000000  1.0 0.0296729203
C  C484  1  0.73670000  0.92035000  0.00000000  1.0 0.1300370828
C  C485  1  0.73780000  0.03922000  0.00000000  1.0 0.0296729203
C  C486  1  0.73670000  0.07965000  0.00000000  1.0 0.1300370828
C  C487  1  0.26220000  0.96078000  0.00000000  1.0 0.0296729203
C  C488  1  0.26330000  0.92035000  0.00000000  1.0 0.1300370828
C  C489  1  0.00000000  0.26220000  0.03922000  1.0 0.0296729203
C  C490  1  0.00000000  0.26330000  0.07965000  1.0 0.1300370828
C  C491  1  0.00000000  0.73780000  0.96078000  1.0 0.0296729203
C  C492  1  0.00000000  0.73670000  0.92035000  1.0 0.1300370828
C  C493  1  0.00000000  0.73780000  0.03922000  1.0 0.0296729203
C  C494  1  0.00000000  0.73670000  0.07965000  1.0 0.1300370828
C  C495  1  0.00000000  0.26220000  0.96078000  1.0 0.0296729203
C  C496  1  0.00000000  0.26330000  0.92035000  1.0 0.1300370828
C  C497  1  0.03922000  0.00000000  0.26220000  1.0 0.0296729203
C  C498  1  0.07965000  0.00000000  0.26330000  1.0 0.1300370828
C  C499  1  0.96078000  0.00000000  0.73780000  1.0 0.0296729203
C  C500  1  0.92035000  0.00000000  0.73670000  1.0 0.1300370828
C  C501  1  0.03922000  0.00000000  0.73780000  1.0 0.0296729203
C  C502  1  0.07965000  0.00000000  0.73670000  1.0 0.1300370828
C  C503  1  0.96078000  0.00000000  0.26220000  1.0 0.0296729203
C  C504  1  0.92035000  0.00000000  0.26330000  1.0 0.1300370828
C  C505  1  0.53922000  0.76220000  0.50000000  1.0 0.0296729203
C  C506  1  0.57965000  0.76330000  0.50000000  1.0 0.1300370828
C  C507  1  0.46078000  0.23780000  0.50000000  1.0 0.0296729203
C  C508  1  0.42035000  0.23670000  0.50000000  1.0 0.1300370828
C  C509  1  0.53922000  0.23780000  0.50000000  1.0 0.0296729203
C  C510  1  0.57965000  0.23670000  0.50000000  1.0 0.1300370828
C  C511  1  0.46078000  0.76220000  0.50000000  1.0 0.0296729203
C  C512  1  0.42035000  0.76330000  0.50000000  1.0 0.1300370828
C  C513  1  0.76220000  0.50000000  0.46078000  1.0 0.0296729203
C  C514  1  0.76330000  0.50000000  0.42035000  1.0 0.1300370828
C  C515  1  0.23780000  0.50000000  0.53922000  1.0 0.0296729203
C  C516  1  0.23670000  0.50000000  0.57965000  1.0 0.1300370828
C  C517  1  0.23780000  0.50000000  0.46078000  1.0 0.0296729203
C  C518  1  0.23670000  0.50000000  0.42035000  1.0 0.1300370828
C  C519  1  0.76220000  0.50000000  0.53922000  1.0 0.0296729203
C  C520  1  0.76330000  0.50000000  0.57965000  1.0 0.1300370828
C  C521  1  0.50000000  0.53922000  0.23780000  1.0 0.0296729203
C  C522  1  0.50000000  0.57965000  0.23670000  1.0 0.1300370828
C  C523  1  0.50000000  0.46078000  0.76220000  1.0 0.0296729203
C  C524  1  0.50000000  0.42035000  0.76330000  1.0 0.1300370828
C  C525  1  0.50000000  0.53922000  0.76220000  1.0 0.0296729203
C  C526  1  0.50000000  0.57965000  0.76330000  1.0 0.1300370828
C  C527  1  0.50000000  0.46078000  0.23780000  1.0 0.0296729203
C  C528  1  0.50000000  0.42035000  0.23670000  1.0 0.1300370828
N  N1  1  0.26590000  0.15566000  0.00000000  1.0 -0.3492243991
N  N2  1  0.73410000  0.84434000  0.00000000  1.0 -0.3492243991
N  N3  1  0.73410000  0.15566000  0.00000000  1.0 -0.3492243991
N  N4  1  0.26590000  0.84434000  0.00000000  1.0 -0.3492243991
N  N5  1  0.00000000  0.26590000  0.15566000  1.0 -0.3492243991
N  N6  1  0.00000000  0.73410000  0.84434000  1.0 -0.3492243991
N  N7  1  0.00000000  0.73410000  0.15566000  1.0 -0.3492243991
N  N8  1  0.00000000  0.26590000  0.84434000  1.0 -0.3492243991
N  N9  1  0.15566000  0.00000000  0.26590000  1.0 -0.3492243991
N  N10  1  0.84434000  0.00000000  0.73410000  1.0 -0.3492243991
N  N11  1  0.15566000  0.00000000  0.73410000  1.0 -0.3492243991
N  N12  1  0.84434000  0.00000000  0.26590000  1.0 -0.3492243991
N  N13  1  0.65566000  0.76590000  0.50000000  1.0 -0.3492243991
N  N14  1  0.34434000  0.23410000  0.50000000  1.0 -0.3492243991
N  N15  1  0.65566000  0.23410000  0.50000000  1.0 -0.3492243991
N  N16  1  0.34434000  0.76590000  0.50000000  1.0 -0.3492243991
N  N17  1  0.76590000  0.50000000  0.34434000  1.0 -0.3492243991
N  N18  1  0.23410000  0.50000000  0.65566000  1.0 -0.3492243991
N  N19  1  0.23410000  0.50000000  0.34434000  1.0 -0.3492243991
N  N20  1  0.76590000  0.50000000  0.65566000  1.0 -0.3492243991
N  N21  1  0.50000000  0.65566000  0.23410000  1.0 -0.3492243991
N  N22  1  0.50000000  0.34434000  0.76590000  1.0 -0.3492243991
N  N23  1  0.50000000  0.65566000  0.76590000  1.0 -0.3492243991
N  N24  1  0.50000000  0.34434000  0.23410000  1.0 -0.3492243991
O  O1  1  0.25581000  0.25027000  0.16611000  1.0 -0.5639571032
O  O2  1  0.28712000  0.20437000  0.19157000  1.0 -0.5659307831
O  O3  1  0.74419000  0.74973000  0.16611000  1.0 -0.5639571032
O  O4  1  0.71288000  0.79563000  0.19157000  1.0 -0.5659307831
O  O5  1  0.74419000  0.25027000  0.83389000  1.0 -0.5639571032
O  O6  1  0.71288000  0.20437000  0.80843000  1.0 -0.5659307831
O  O7  1  0.25581000  0.74973000  0.83389000  1.0 -0.5639571032
O  O8  1  0.28712000  0.79563000  0.80843000  1.0 -0.5659307831
O  O9  1  0.16611000  0.25581000  0.25027000  1.0 -0.5639571032
O  O10  1  0.19157000  0.28712000  0.20437000  1.0 -0.5659307831
O  O11  1  0.16611000  0.74419000  0.74973000  1.0 -0.5639571032
O  O12  1  0.19157000  0.71288000  0.79563000  1.0 -0.5659307831
O  O13  1  0.83389000  0.74419000  0.25027000  1.0 -0.5639571032
O  O14  1  0.80843000  0.71288000  0.20437000  1.0 -0.5659307831
O  O15  1  0.83389000  0.25581000  0.74973000  1.0 -0.5639571032
O  O16  1  0.80843000  0.28712000  0.79563000  1.0 -0.5659307831
O  O17  1  0.25027000  0.16611000  0.25581000  1.0 -0.5639571032
O  O18  1  0.20437000  0.19157000  0.28712000  1.0 -0.5659307831
O  O19  1  0.74973000  0.16611000  0.74419000  1.0 -0.5639571032
O  O20  1  0.79563000  0.19157000  0.71288000  1.0 -0.5659307831
O  O21  1  0.25027000  0.83389000  0.74419000  1.0 -0.5639571032
O  O22  1  0.20437000  0.80843000  0.71288000  1.0 -0.5659307831
O  O23  1  0.74973000  0.83389000  0.25581000  1.0 -0.5639571032
O  O24  1  0.79563000  0.80843000  0.28712000  1.0 -0.5659307831
O  O25  1  0.75027000  0.75581000  0.33389000  1.0 -0.5639571032
O  O26  1  0.70437000  0.78712000  0.30843000  1.0 -0.5659307831
O  O27  1  0.24973000  0.24419000  0.33389000  1.0 -0.5639571032
O  O28  1  0.29563000  0.21288000  0.30843000  1.0 -0.5659307831
O  O29  1  0.75027000  0.24419000  0.66611000  1.0 -0.5639571032
O  O30  1  0.70437000  0.21288000  0.69157000  1.0 -0.5659307831
O  O31  1  0.24973000  0.75581000  0.66611000  1.0 -0.5639571032
O  O32  1  0.29563000  0.78712000  0.69157000  1.0 -0.5659307831
O  O33  1  0.75581000  0.66611000  0.24973000  1.0 -0.5639571032
O  O34  1  0.78712000  0.69157000  0.29563000  1.0 -0.5659307831
O  O35  1  0.24419000  0.66611000  0.75027000  1.0 -0.5639571032
O  O36  1  0.21288000  0.69157000  0.70437000  1.0 -0.5659307831
O  O37  1  0.24419000  0.33389000  0.24973000  1.0 -0.5639571032
O  O38  1  0.21288000  0.30843000  0.29563000  1.0 -0.5659307831
O  O39  1  0.75581000  0.33389000  0.75027000  1.0 -0.5639571032
O  O40  1  0.78712000  0.30843000  0.70437000  1.0 -0.5659307831
O  O41  1  0.66611000  0.75027000  0.24419000  1.0 -0.5639571032
O  O42  1  0.69157000  0.70437000  0.21288000  1.0 -0.5659307831
O  O43  1  0.66611000  0.24973000  0.75581000  1.0 -0.5639571032
O  O44  1  0.69157000  0.29563000  0.78712000  1.0 -0.5659307831
O  O45  1  0.33389000  0.75027000  0.75581000  1.0 -0.5639571032
O  O46  1  0.30843000  0.70437000  0.78712000  1.0 -0.5659307831
O  O47  1  0.33389000  0.24973000  0.24419000  1.0 -0.5639571032
O  O48  1  0.30843000  0.29563000  0.21288000  1.0 -0.5659307831
O  O49  1  0.74419000  0.74973000  0.83389000  1.0 -0.5639571032
O  O50  1  0.71288000  0.79563000  0.80843000  1.0 -0.5659307831
O  O51  1  0.25581000  0.25027000  0.83389000  1.0 -0.5639571032
O  O52  1  0.28712000  0.20437000  0.80843000  1.0 -0.5659307831
O  O53  1  0.25581000  0.74973000  0.16611000  1.0 -0.5639571032
O  O54  1  0.28712000  0.79563000  0.19157000  1.0 -0.5659307831
O  O55  1  0.74419000  0.25027000  0.16611000  1.0 -0.5639571032
O  O56  1  0.71288000  0.20437000  0.19157000  1.0 -0.5659307831
O  O57  1  0.83389000  0.74419000  0.74973000  1.0 -0.5639571032
O  O58  1  0.80843000  0.71288000  0.79563000  1.0 -0.5659307831
O  O59  1  0.83389000  0.25581000  0.25027000  1.0 -0.5639571032
O  O60  1  0.80843000  0.28712000  0.20437000  1.0 -0.5659307831
O  O61  1  0.16611000  0.25581000  0.74973000  1.0 -0.5639571032
O  O62  1  0.19157000  0.28712000  0.79563000  1.0 -0.5659307831
O  O63  1  0.16611000  0.74419000  0.25027000  1.0 -0.5639571032
O  O64  1  0.19157000  0.71288000  0.20437000  1.0 -0.5659307831
O  O65  1  0.74973000  0.83389000  0.74419000  1.0 -0.5639571032
O  O66  1  0.79563000  0.80843000  0.71288000  1.0 -0.5659307831
O  O67  1  0.25027000  0.83389000  0.25581000  1.0 -0.5639571032
O  O68  1  0.20437000  0.80843000  0.28712000  1.0 -0.5659307831
O  O69  1  0.74973000  0.16611000  0.25581000  1.0 -0.5639571032
O  O70  1  0.79563000  0.19157000  0.28712000  1.0 -0.5659307831
O  O71  1  0.25027000  0.16611000  0.74419000  1.0 -0.5639571032
O  O72  1  0.20437000  0.19157000  0.71288000  1.0 -0.5659307831
O  O73  1  0.24973000  0.24419000  0.66611000  1.0 -0.5639571032
O  O74  1  0.29563000  0.21288000  0.69157000  1.0 -0.5659307831
O  O75  1  0.75027000  0.75581000  0.66611000  1.0 -0.5639571032
O  O76  1  0.70437000  0.78712000  0.69157000  1.0 -0.5659307831
O  O77  1  0.24973000  0.75581000  0.33389000  1.0 -0.5639571032
O  O78  1  0.29563000  0.78712000  0.30843000  1.0 -0.5659307831
O  O79  1  0.75027000  0.24419000  0.33389000  1.0 -0.5639571032
O  O80  1  0.70437000  0.21288000  0.30843000  1.0 -0.5659307831
O  O81  1  0.24419000  0.33389000  0.75027000  1.0 -0.5639571032
O  O82  1  0.21288000  0.30843000  0.70437000  1.0 -0.5659307831
O  O83  1  0.75581000  0.33389000  0.24973000  1.0 -0.5639571032
O  O84  1  0.78712000  0.30843000  0.29563000  1.0 -0.5659307831
O  O85  1  0.75581000  0.66611000  0.75027000  1.0 -0.5639571032
O  O86  1  0.78712000  0.69157000  0.70437000  1.0 -0.5659307831
O  O87  1  0.24419000  0.66611000  0.24973000  1.0 -0.5639571032
O  O88  1  0.21288000  0.69157000  0.29563000  1.0 -0.5659307831
O  O89  1  0.33389000  0.24973000  0.75581000  1.0 -0.5639571032
O  O90  1  0.30843000  0.29563000  0.78712000  1.0 -0.5659307831
O  O91  1  0.33389000  0.75027000  0.24419000  1.0 -0.5639571032
O  O92  1  0.30843000  0.70437000  0.21288000  1.0 -0.5659307831
O  O93  1  0.66611000  0.24973000  0.24419000  1.0 -0.5639571032
O  O94  1  0.69157000  0.29563000  0.21288000  1.0 -0.5659307831
O  O95  1  0.66611000  0.75027000  0.75581000  1.0 -0.5639571032
O  O96  1  0.69157000  0.70437000  0.78712000  1.0 -0.5659307831
O  O97  1  0.25000000  0.25000000  0.25000000  1.0 -1.0809069629
O  O98  1  0.75000000  0.75000000  0.25000000  1.0 -1.0809069629
O  O99  1  0.75000000  0.25000000  0.75000000  1.0 -1.0809069629
O  O100  1  0.25000000  0.75000000  0.75000000  1.0 -1.0809069629
O  O101  1  0.75000000  0.75000000  0.75000000  1.0 -1.0809069629
O  O102  1  0.25000000  0.25000000  0.75000000  1.0 -1.0809069629
O  O103  1  0.25000000  0.75000000  0.25000000  1.0 -1.0809069629
O  O104  1  0.75000000  0.25000000  0.25000000  1.0 -1.0809069629
