# DDEC6 charges by PACMAN v1.1 (https://github.com/mtap-research/PACMAN-charge/)
data_ja5b11079_si_003_FSR_pacman
_symmetry_space_group_name_H-M   'P 1'
_cell_length_a   25.92000000
_cell_length_b   28.56000000
_cell_length_c   40.27000000
_cell_angle_alpha   90.00000000
_cell_angle_beta   90.00000000
_cell_angle_gamma   90.00000000
_symmetry_Int_Tables_number   1
_chemical_formula_structural   Zn2H17(C16O5)2
_chemical_formula_sum   'Zn32 H272 C512 O160'
_cell_volume   29810.88230400
_cell_formula_units_Z   16
loop_
 _symmetry_equiv_pos_site_id
 _symmetry_equiv_pos_as_xyz
  1  'x, y, z'
loop_
 _atom_site_type_symbol
 _atom_site_label
 _atom_site_symmetry_multiplicity
 _atom_site_fract_x
 _atom_site_fract_y
 _atom_site_fract_z
 _atom_site_occupancy
 _atom_site_charge
Zn  Zn1  1  0.50000000  0.21686000  0.22177000  1.0 0.9969945618
Zn  Zn2  1  0.50000000  0.78314000  0.22177000  1.0 0.9969945618
Zn  Zn3  1  0.50000000  0.21686000  0.77823000  1.0 0.9969945618
Zn  Zn4  1  0.50000000  0.78314000  0.77823000  1.0 0.9969945618
Zn  Zn5  1  0.50000000  0.71686000  0.72177000  1.0 0.9948344338
Zn  Zn6  1  0.50000000  0.28314000  0.72177000  1.0 0.9969945618
Zn  Zn7  1  0.50000000  0.71686000  0.27823000  1.0 0.9969945618
Zn  Zn8  1  0.50000000  0.28314000  0.27823000  1.0 0.9969945618
Zn  Zn9  1  0.00000000  0.21686000  0.72177000  1.0 0.9969945618
Zn  Zn10  1  0.00000000  0.78314000  0.72177000  1.0 0.9969945618
Zn  Zn11  1  0.00000000  0.21686000  0.27823000  1.0 0.9969945618
Zn  Zn12  1  0.00000000  0.78314000  0.27823000  1.0 0.9969945618
Zn  Zn13  1  0.00000000  0.71686000  0.22177000  1.0 0.9969945618
Zn  Zn14  1  0.00000000  0.28314000  0.22177000  1.0 0.9969945618
Zn  Zn15  1  0.00000000  0.71686000  0.77823000  1.0 0.9969945618
Zn  Zn16  1  0.00000000  0.28314000  0.77823000  1.0 0.9969945618
Zn  Zn17  1  0.21112000  0.50000000  0.22284000  1.0 1.0186193693
Zn  Zn18  1  0.78888000  0.50000000  0.22284000  1.0 1.0186193693
Zn  Zn19  1  0.78888000  0.50000000  0.77716000  1.0 1.0132638522
Zn  Zn20  1  0.21112000  0.50000000  0.77716000  1.0 1.0132638522
Zn  Zn21  1  0.21112000  0.00000000  0.72284000  1.0 1.0132638522
Zn  Zn22  1  0.78888000  0.00000000  0.72284000  1.0 1.0132638522
Zn  Zn23  1  0.78888000  0.00000000  0.27716000  1.0 1.0132638522
Zn  Zn24  1  0.21112000  0.00000000  0.27716000  1.0 1.0132638522
Zn  Zn25  1  0.71112000  0.50000000  0.72284000  1.0 1.0132638522
Zn  Zn26  1  0.28888000  0.50000000  0.72284000  1.0 1.0132638522
Zn  Zn27  1  0.28888000  0.50000000  0.27716000  1.0 1.0132638522
Zn  Zn28  1  0.71112000  0.50000000  0.27716000  1.0 1.0132638522
Zn  Zn29  1  0.71112000  0.00000000  0.22284000  1.0 1.0186193693
Zn  Zn30  1  0.28888000  0.00000000  0.22284000  1.0 1.0186193693
Zn  Zn31  1  0.28888000  0.00000000  0.77716000  1.0 1.0132638522
Zn  Zn32  1  0.71112000  0.00000000  0.77716000  1.0 1.0132638522
H  H193  1  0.35940000  0.27170000  0.05860000  1.0 0.1934154087
H  H194  1  0.64060000  0.72830000  0.05860000  1.0 0.1934154087
H  H195  1  0.64060000  0.27170000  0.94140000  1.0 0.1958325553
H  H196  1  0.35940000  0.72830000  0.94140000  1.0 0.1958325553
H  H197  1  0.35940000  0.77170000  0.55860000  1.0 0.1934154087
H  H198  1  0.64060000  0.22830000  0.55860000  1.0 0.1934154087
H  H199  1  0.64060000  0.77170000  0.44140000  1.0 0.1958325553
H  H200  1  0.35940000  0.22830000  0.44140000  1.0 0.1934154087
H  H201  1  0.85940000  0.27170000  0.55860000  1.0 0.1934154087
H  H202  1  0.14060000  0.72830000  0.55860000  1.0 0.1934154087
H  H203  1  0.14060000  0.27170000  0.44140000  1.0 0.1934154087
H  H204  1  0.85940000  0.72830000  0.44140000  1.0 0.1934154087
H  H205  1  0.85940000  0.77170000  0.05860000  1.0 0.1934154087
H  H206  1  0.14060000  0.22830000  0.05860000  1.0 0.1934154087
H  H207  1  0.14060000  0.77170000  0.94140000  1.0 0.1958325553
H  H208  1  0.85940000  0.22830000  0.94140000  1.0 0.1958325553
H  H209  1  0.64060000  0.72830000  0.94140000  1.0 0.1958325553
H  H210  1  0.35940000  0.27170000  0.94140000  1.0 0.1958325553
H  H211  1  0.35940000  0.72830000  0.05860000  1.0 0.1934154087
H  H212  1  0.64060000  0.27170000  0.05860000  1.0 0.1934154087
H  H213  1  0.64060000  0.22830000  0.44140000  1.0 0.1934154087
H  H214  1  0.35940000  0.77170000  0.44140000  1.0 0.1934154087
H  H215  1  0.35940000  0.22830000  0.55860000  1.0 0.1934154087
H  H216  1  0.64060000  0.77170000  0.55860000  1.0 0.1958325553
H  H217  1  0.14060000  0.72830000  0.44140000  1.0 0.1934154087
H  H218  1  0.85940000  0.27170000  0.44140000  1.0 0.1934154087
H  H219  1  0.85940000  0.72830000  0.55860000  1.0 0.1934154087
H  H220  1  0.14060000  0.27170000  0.55860000  1.0 0.1934154087
H  H221  1  0.14060000  0.22830000  0.94140000  1.0 0.1958325553
H  H222  1  0.85940000  0.77170000  0.94140000  1.0 0.1958325553
H  H223  1  0.85940000  0.22830000  0.05860000  1.0 0.1934154087
H  H224  1  0.14060000  0.77170000  0.05860000  1.0 0.1934154087
H  H225  1  0.21520000  0.31520000  0.07800000  1.0 0.2797910083
H  H226  1  0.78480000  0.68480000  0.07800000  1.0 0.2797910083
H  H227  1  0.78480000  0.31520000  0.92200000  1.0 0.2797910083
H  H228  1  0.21520000  0.68480000  0.92200000  1.0 0.2797910083
H  H229  1  0.21520000  0.81520000  0.57800000  1.0 0.2797910083
H  H230  1  0.78480000  0.18480000  0.57800000  1.0 0.2797910083
H  H231  1  0.78480000  0.81520000  0.42200000  1.0 0.2797910083
H  H232  1  0.21520000  0.18480000  0.42200000  1.0 0.2797910083
H  H233  1  0.71520000  0.31520000  0.57800000  1.0 0.2797910083
H  H234  1  0.28480000  0.68480000  0.57800000  1.0 0.2797910083
H  H235  1  0.28480000  0.31520000  0.42200000  1.0 0.2797910083
H  H236  1  0.71520000  0.68480000  0.42200000  1.0 0.2797910083
H  H237  1  0.71520000  0.81520000  0.07800000  1.0 0.2797910083
H  H238  1  0.28480000  0.18480000  0.07800000  1.0 0.2797910083
H  H239  1  0.28480000  0.81520000  0.92200000  1.0 0.2797910083
H  H240  1  0.71520000  0.18480000  0.92200000  1.0 0.2797910083
H  H241  1  0.78480000  0.68480000  0.92200000  1.0 0.2797910083
H  H242  1  0.21520000  0.31520000  0.92200000  1.0 0.2797910083
H  H243  1  0.21520000  0.68480000  0.07800000  1.0 0.2797910083
H  H244  1  0.78480000  0.31520000  0.07800000  1.0 0.2797910083
H  H245  1  0.78480000  0.18480000  0.42200000  1.0 0.2797910083
H  H246  1  0.21520000  0.81520000  0.42200000  1.0 0.2797910083
H  H247  1  0.21520000  0.18480000  0.57800000  1.0 0.2797910083
H  H248  1  0.78480000  0.81520000  0.57800000  1.0 0.2797910083
H  H249  1  0.28480000  0.68480000  0.42200000  1.0 0.2797910083
H  H250  1  0.71520000  0.31520000  0.42200000  1.0 0.2797910083
H  H251  1  0.71520000  0.68480000  0.57800000  1.0 0.2797910083
H  H252  1  0.28480000  0.31520000  0.57800000  1.0 0.2797910083
H  H253  1  0.28480000  0.18480000  0.92200000  1.0 0.2797910083
H  H254  1  0.71520000  0.81520000  0.92200000  1.0 0.2797910083
H  H255  1  0.71520000  0.18480000  0.07800000  1.0 0.2797910083
H  H256  1  0.28480000  0.81520000  0.07800000  1.0 0.2797910083
H  H257  1  0.38510000  0.29850000  0.10990000  1.0 0.1527839874
H  H258  1  0.61490000  0.70150000  0.10990000  1.0 0.1527839874
H  H259  1  0.61490000  0.29850000  0.89010000  1.0 0.1527839874
H  H260  1  0.38510000  0.70150000  0.89010000  1.0 0.1527839874
H  H261  1  0.38510000  0.79850000  0.60990000  1.0 0.155290972
H  H262  1  0.61490000  0.20150000  0.60990000  1.0 0.155290972
H  H263  1  0.61490000  0.79850000  0.39010000  1.0 0.155290972
H  H264  1  0.38510000  0.20150000  0.39010000  1.0 0.155290972
H  H265  1  0.88510000  0.29850000  0.60990000  1.0 0.155290972
H  H266  1  0.11490000  0.70150000  0.60990000  1.0 0.155290972
H  H267  1  0.11490000  0.29850000  0.39010000  1.0 0.155290972
H  H268  1  0.88510000  0.70150000  0.39010000  1.0 0.1527839874
H  H269  1  0.88510000  0.79850000  0.10990000  1.0 0.1527839874
H  H270  1  0.11490000  0.20150000  0.10990000  1.0 0.1527839874
H  H271  1  0.11490000  0.79850000  0.89010000  1.0 0.1527839874
H  H272  1  0.88510000  0.20150000  0.89010000  1.0 0.1527839874
H  H273  1  0.61490000  0.70150000  0.89010000  1.0 0.1527839874
H  H274  1  0.38510000  0.29850000  0.89010000  1.0 0.1527839874
H  H275  1  0.38510000  0.70150000  0.10990000  1.0 0.1527839874
H  H276  1  0.61490000  0.29850000  0.10990000  1.0 0.1527839874
H  H277  1  0.61490000  0.20150000  0.39010000  1.0 0.155290972
H  H278  1  0.38510000  0.79850000  0.39010000  1.0 0.155290972
H  H279  1  0.38510000  0.20150000  0.60990000  1.0 0.155290972
H  H280  1  0.61490000  0.79850000  0.60990000  1.0 0.155290972
H  H281  1  0.11490000  0.70150000  0.39010000  1.0 0.155290972
H  H282  1  0.88510000  0.29850000  0.39010000  1.0 0.1527839874
H  H283  1  0.88510000  0.70150000  0.60990000  1.0 0.155290972
H  H284  1  0.11490000  0.29850000  0.60990000  1.0 0.155290972
H  H285  1  0.11490000  0.20150000  0.89010000  1.0 0.1527839874
H  H286  1  0.88510000  0.79850000  0.89010000  1.0 0.1527839874
H  H287  1  0.88510000  0.20150000  0.10990000  1.0 0.1527839874
H  H288  1  0.11490000  0.79850000  0.10990000  1.0 0.1527839874
H  H289  1  0.24300000  0.34410000  0.12770000  1.0 0.1230470385
H  H290  1  0.75700000  0.65590000  0.12770000  1.0 0.1230470385
H  H291  1  0.75700000  0.34410000  0.87230000  1.0 0.1230470385
H  H292  1  0.24300000  0.65590000  0.87230000  1.0 0.1230470385
H  H293  1  0.24300000  0.84410000  0.62770000  1.0 0.1230470385
H  H294  1  0.75700000  0.15590000  0.62770000  1.0 0.1230470385
H  H295  1  0.75700000  0.84410000  0.37230000  1.0 0.1230470385
H  H296  1  0.24300000  0.15590000  0.37230000  1.0 0.1230470385
H  H297  1  0.74300000  0.34410000  0.62770000  1.0 0.1230470385
H  H298  1  0.25700000  0.65590000  0.62770000  1.0 0.1230470385
H  H299  1  0.25700000  0.34410000  0.37230000  1.0 0.1230470385
H  H300  1  0.74300000  0.65590000  0.37230000  1.0 0.1230470385
H  H301  1  0.74300000  0.84410000  0.12770000  1.0 0.1230470385
H  H302  1  0.25700000  0.15590000  0.12770000  1.0 0.1230470385
H  H303  1  0.25700000  0.84410000  0.87230000  1.0 0.1230470385
H  H304  1  0.74300000  0.15590000  0.87230000  1.0 0.1230470385
H  H305  1  0.75700000  0.65590000  0.87230000  1.0 0.1230470385
H  H306  1  0.24300000  0.34410000  0.87230000  1.0 0.1230470385
H  H307  1  0.24300000  0.65590000  0.12770000  1.0 0.1230470385
H  H308  1  0.75700000  0.34410000  0.12770000  1.0 0.1230470385
H  H309  1  0.75700000  0.15590000  0.37230000  1.0 0.1230470385
H  H310  1  0.24300000  0.84410000  0.37230000  1.0 0.1230470385
H  H311  1  0.24300000  0.15590000  0.62770000  1.0 0.1333997466
H  H312  1  0.75700000  0.84410000  0.62770000  1.0 0.1230470385
H  H313  1  0.25700000  0.65590000  0.37230000  1.0 0.1230470385
H  H314  1  0.74300000  0.34410000  0.37230000  1.0 0.1230470385
H  H315  1  0.74300000  0.65590000  0.62770000  1.0 0.1230470385
H  H316  1  0.25700000  0.34410000  0.62770000  1.0 0.1230470385
H  H317  1  0.25700000  0.15590000  0.87230000  1.0 0.1230470385
H  H318  1  0.74300000  0.84410000  0.87230000  1.0 0.1230470385
H  H319  1  0.74300000  0.15590000  0.12770000  1.0 0.1230470385
H  H320  1  0.25700000  0.84410000  0.12770000  1.0 0.1230470385
H  H321  1  0.38940000  0.29050000  0.16550000  1.0 0.1230470385
H  H322  1  0.61060000  0.70950000  0.16550000  1.0 0.1230470385
H  H323  1  0.61060000  0.29050000  0.83450000  1.0 0.1230470385
H  H324  1  0.38940000  0.70950000  0.83450000  1.0 0.1230470385
H  H325  1  0.38940000  0.79050000  0.66550000  1.0 0.1230470385
H  H326  1  0.61060000  0.20950000  0.66550000  1.0 0.1230470385
H  H327  1  0.61060000  0.79050000  0.33450000  1.0 0.1230470385
H  H328  1  0.38940000  0.20950000  0.33450000  1.0 0.1230470385
H  H329  1  0.88940000  0.29050000  0.66550000  1.0 0.1230470385
H  H330  1  0.11060000  0.70950000  0.66550000  1.0 0.1230470385
H  H331  1  0.11060000  0.29050000  0.33450000  1.0 0.1230470385
H  H332  1  0.88940000  0.70950000  0.33450000  1.0 0.1230470385
H  H333  1  0.88940000  0.79050000  0.16550000  1.0 0.1230470385
H  H334  1  0.11060000  0.20950000  0.16550000  1.0 0.1230470385
H  H335  1  0.11060000  0.79050000  0.83450000  1.0 0.1230470385
H  H336  1  0.88940000  0.20950000  0.83450000  1.0 0.1230470385
H  H337  1  0.61060000  0.70950000  0.83450000  1.0 0.1230470385
H  H338  1  0.38940000  0.29050000  0.83450000  1.0 0.1230470385
H  H339  1  0.38940000  0.70950000  0.16550000  1.0 0.1230470385
H  H340  1  0.61060000  0.29050000  0.16550000  1.0 0.1230470385
H  H341  1  0.61060000  0.20950000  0.33450000  1.0 0.1230470385
H  H342  1  0.38940000  0.79050000  0.33450000  1.0 0.1230470385
H  H343  1  0.38940000  0.20950000  0.66550000  1.0 0.1230470385
H  H344  1  0.61060000  0.79050000  0.66550000  1.0 0.1230470385
H  H345  1  0.11060000  0.70950000  0.33450000  1.0 0.1230470385
H  H346  1  0.88940000  0.29050000  0.33450000  1.0 0.1230470385
H  H347  1  0.88940000  0.70950000  0.66550000  1.0 0.1230470385
H  H348  1  0.11060000  0.29050000  0.66550000  1.0 0.1230470385
H  H349  1  0.11060000  0.20950000  0.83450000  1.0 0.1230470385
H  H350  1  0.88940000  0.79050000  0.83450000  1.0 0.1230470385
H  H351  1  0.88940000  0.20950000  0.16550000  1.0 0.1230470385
H  H352  1  0.11060000  0.79050000  0.16550000  1.0 0.1230470385
H  H353  1  0.28370000  0.39330000  0.16290000  1.0 0.1333997466
H  H354  1  0.71630000  0.60670000  0.16290000  1.0 0.1230470385
H  H355  1  0.71630000  0.39330000  0.83710000  1.0 0.1230470385
H  H356  1  0.28370000  0.60670000  0.83710000  1.0 0.1230470385
H  H357  1  0.28370000  0.89330000  0.66290000  1.0 0.1230470385
H  H358  1  0.71630000  0.10670000  0.66290000  1.0 0.1230470385
H  H359  1  0.71630000  0.89330000  0.33710000  1.0 0.1230470385
H  H360  1  0.28370000  0.10670000  0.33710000  1.0 0.1230470385
H  H361  1  0.78370000  0.39330000  0.66290000  1.0 0.1230470385
H  H362  1  0.21630000  0.60670000  0.66290000  1.0 0.1230470385
H  H363  1  0.21630000  0.39330000  0.33710000  1.0 0.1230470385
H  H364  1  0.78370000  0.60670000  0.33710000  1.0 0.1230470385
H  H365  1  0.78370000  0.89330000  0.16290000  1.0 0.1230470385
H  H366  1  0.21630000  0.10670000  0.16290000  1.0 0.1333997466
H  H367  1  0.21630000  0.89330000  0.83710000  1.0 0.1230470385
H  H368  1  0.78370000  0.10670000  0.83710000  1.0 0.1230470385
H  H369  1  0.71630000  0.60670000  0.83710000  1.0 0.1230470385
H  H370  1  0.28370000  0.39330000  0.83710000  1.0 0.1230470385
H  H371  1  0.28370000  0.60670000  0.16290000  1.0 0.1333997466
H  H372  1  0.71630000  0.39330000  0.16290000  1.0 0.1230470385
H  H373  1  0.71630000  0.10670000  0.33710000  1.0 0.1230470385
H  H374  1  0.28370000  0.89330000  0.33710000  1.0 0.1230470385
H  H375  1  0.28370000  0.10670000  0.66290000  1.0 0.1230470385
H  H376  1  0.71630000  0.89330000  0.66290000  1.0 0.1230470385
H  H377  1  0.21630000  0.60670000  0.33710000  1.0 0.1230470385
H  H378  1  0.78370000  0.39330000  0.33710000  1.0 0.1230470385
H  H379  1  0.78370000  0.60670000  0.66290000  1.0 0.1230470385
H  H380  1  0.21630000  0.39330000  0.66290000  1.0 0.1230470385
H  H381  1  0.21630000  0.10670000  0.83710000  1.0 0.1230470385
H  H382  1  0.78370000  0.89330000  0.83710000  1.0 0.1230470385
H  H383  1  0.78370000  0.10670000  0.16290000  1.0 0.1230470385
H  H384  1  0.21630000  0.89330000  0.16290000  1.0 0.1333997466
H  H385  1  0.37760000  0.37910000  0.24170000  1.0 0.1333997466
H  H386  1  0.62240000  0.62090000  0.24170000  1.0 0.1333997466
H  H387  1  0.62240000  0.37910000  0.75830000  1.0 0.1333997466
H  H388  1  0.37760000  0.62090000  0.75830000  1.0 0.1333997466
H  H389  1  0.37760000  0.87910000  0.74170000  1.0 0.1333997466
H  H390  1  0.62240000  0.12090000  0.74170000  1.0 0.1333997466
H  H391  1  0.62240000  0.87910000  0.25830000  1.0 0.1333997466
H  H392  1  0.37760000  0.12090000  0.25830000  1.0 0.1333997466
H  H393  1  0.87760000  0.37910000  0.74170000  1.0 0.1333997466
H  H394  1  0.12240000  0.62090000  0.74170000  1.0 0.1333997466
H  H395  1  0.12240000  0.37910000  0.25830000  1.0 0.1333997466
H  H396  1  0.87760000  0.62090000  0.25830000  1.0 0.1333997466
H  H397  1  0.87760000  0.87910000  0.24170000  1.0 0.1333997466
H  H398  1  0.12240000  0.12090000  0.24170000  1.0 0.1333997466
H  H399  1  0.12240000  0.87910000  0.75830000  1.0 0.1333997466
H  H400  1  0.87760000  0.12090000  0.75830000  1.0 0.1333997466
H  H401  1  0.62240000  0.62090000  0.75830000  1.0 0.1333997466
H  H402  1  0.37760000  0.37910000  0.75830000  1.0 0.1333997466
H  H403  1  0.37760000  0.62090000  0.24170000  1.0 0.1333997466
H  H404  1  0.62240000  0.37910000  0.24170000  1.0 0.1333997466
H  H405  1  0.62240000  0.12090000  0.25830000  1.0 0.1333997466
H  H406  1  0.37760000  0.87910000  0.25830000  1.0 0.1333997466
H  H407  1  0.37760000  0.12090000  0.74170000  1.0 0.1333997466
H  H408  1  0.62240000  0.87910000  0.74170000  1.0 0.1333997466
H  H409  1  0.12240000  0.62090000  0.25830000  1.0 0.1333997466
H  H410  1  0.87760000  0.37910000  0.25830000  1.0 0.1333997466
H  H411  1  0.87760000  0.62090000  0.74170000  1.0 0.1333997466
H  H412  1  0.12240000  0.37910000  0.74170000  1.0 0.1333997466
H  H413  1  0.12240000  0.12090000  0.75830000  1.0 0.1333997466
H  H414  1  0.87760000  0.87910000  0.75830000  1.0 0.1333997466
H  H415  1  0.87760000  0.12090000  0.24170000  1.0 0.1333997466
H  H416  1  0.12240000  0.87910000  0.24170000  1.0 0.1333997466
H  H1  1  0.32170000  0.34280000  0.97750000  0.25 0.0519356139
H  H2  1  0.67830000  0.65720000  0.97750000  0.25 0.0519356139
H  H3  1  0.67830000  0.34280000  0.02250000  0.25 0.0519356139
H  H4  1  0.32170000  0.65720000  0.02250000  0.25 0.0519356139
H  H5  1  0.32170000  0.84280000  0.47750000  0.25 0.0519356139
H  H6  1  0.67830000  0.15720000  0.47750000  0.25 0.0519356139
H  H7  1  0.67830000  0.84280000  0.52250000  0.25 0.0519356139
H  H8  1  0.32170000  0.15720000  0.52250000  0.25 0.0519356139
H  H9  1  0.82170000  0.34280000  0.47750000  0.25 0.0519356139
H  H10  1  0.17830000  0.65720000  0.47750000  0.25 0.0519356139
H  H11  1  0.17830000  0.34280000  0.52250000  0.25 0.0519356139
H  H12  1  0.82170000  0.65720000  0.52250000  0.25 0.0519356139
H  H13  1  0.82170000  0.84280000  0.97750000  0.25 0.0519356139
H  H14  1  0.17830000  0.15720000  0.97750000  0.25 0.0519356139
H  H15  1  0.17830000  0.84280000  0.02250000  0.25 0.0519356139
H  H16  1  0.82170000  0.15720000  0.02250000  0.25 0.0519356139
H  H17  1  0.67830000  0.65720000  0.02250000  0.25 0.0519356139
H  H18  1  0.32170000  0.34280000  0.02250000  0.25 0.0519356139
H  H19  1  0.32170000  0.65720000  0.97750000  0.25 0.0519356139
H  H20  1  0.67830000  0.34280000  0.97750000  0.25 0.0519356139
H  H21  1  0.67830000  0.15720000  0.52250000  0.25 0.0519356139
H  H22  1  0.32170000  0.84280000  0.52250000  0.25 0.0519356139
H  H23  1  0.32170000  0.15720000  0.47750000  0.25 0.0519356139
H  H24  1  0.67830000  0.84280000  0.47750000  0.25 0.0519356139
H  H25  1  0.17830000  0.65720000  0.52250000  0.25 0.0519356139
H  H26  1  0.82170000  0.34280000  0.52250000  0.25 0.0519356139
H  H27  1  0.82170000  0.65720000  0.47750000  0.25 0.0519356139
H  H28  1  0.17830000  0.34280000  0.47750000  0.25 0.0519356139
H  H29  1  0.17830000  0.15720000  0.02250000  0.25 0.0519356139
H  H30  1  0.82170000  0.84280000  0.02250000  0.25 0.0519356139
H  H31  1  0.82170000  0.15720000  0.97750000  0.25 0.0519356139
H  H32  1  0.17830000  0.84280000  0.97750000  0.25 0.0519356139
H  H33  1  0.34520000  0.32920000  0.01210000  0.25 0.0320846601
H  H34  1  0.65480000  0.67080000  0.01210000  0.25 0.0320846601
H  H35  1  0.65480000  0.32920000  0.98790000  0.25 0.0395559995
H  H36  1  0.34520000  0.67080000  0.98790000  0.25 0.0395559995
H  H37  1  0.34520000  0.82920000  0.51210000  0.25 0.0320846601
H  H38  1  0.65480000  0.17080000  0.51210000  0.25 0.0395559995
H  H39  1  0.65480000  0.82920000  0.48790000  0.25 0.0320846601
H  H40  1  0.34520000  0.17080000  0.48790000  0.25 0.0320846601
H  H41  1  0.84520000  0.32920000  0.51210000  0.25 0.0395559995
H  H42  1  0.15480000  0.67080000  0.51210000  0.25 0.0320846601
H  H43  1  0.15480000  0.32920000  0.48790000  0.25 0.0320846601
H  H44  1  0.84520000  0.67080000  0.48790000  0.25 0.0320846601
H  H45  1  0.84520000  0.82920000  0.01210000  0.25 0.0320846601
H  H46  1  0.15480000  0.17080000  0.01210000  0.25 0.0320846601
H  H47  1  0.15480000  0.82920000  0.98790000  0.25 0.0395559995
H  H48  1  0.84520000  0.17080000  0.98790000  0.25 0.0395559995
H  H49  1  0.65480000  0.67080000  0.98790000  0.25 0.0395559995
H  H50  1  0.34520000  0.32920000  0.98790000  0.25 0.0395559995
H  H51  1  0.34520000  0.67080000  0.01210000  0.25 0.0320846601
H  H52  1  0.65480000  0.32920000  0.01210000  0.25 0.0395559995
H  H53  1  0.65480000  0.17080000  0.48790000  0.25 0.0320846601
H  H54  1  0.34520000  0.82920000  0.48790000  0.25 0.0320846601
H  H55  1  0.34520000  0.17080000  0.51210000  0.25 0.0320846601
H  H56  1  0.65480000  0.82920000  0.51210000  0.25 0.0395559995
H  H57  1  0.15480000  0.67080000  0.48790000  0.25 0.0320846601
H  H58  1  0.84520000  0.32920000  0.48790000  0.25 0.0320846601
H  H59  1  0.84520000  0.67080000  0.51210000  0.25 0.0395559995
H  H60  1  0.15480000  0.32920000  0.51210000  0.25 0.0320846601
H  H61  1  0.15480000  0.17080000  0.98790000  0.25 0.0395559995
H  H62  1  0.84520000  0.82920000  0.98790000  0.25 0.0395559995
H  H63  1  0.84520000  0.17080000  0.01210000  0.25 0.0395559995
H  H64  1  0.15480000  0.82920000  0.01210000  0.25 0.0320846601
H  H65  1  0.29430000  0.35870000  0.01040000  0.25 0.0395559995
H  H66  1  0.70570000  0.64130000  0.01040000  0.25 0.0395559995
H  H67  1  0.70570000  0.35870000  0.98960000  0.25 0.0519356139
H  H68  1  0.29430000  0.64130000  0.98960000  0.25 0.0395559995
H  H69  1  0.29430000  0.85870000  0.51040000  0.25 0.0395559995
H  H70  1  0.70570000  0.14130000  0.51040000  0.25 0.0395559995
H  H71  1  0.70570000  0.85870000  0.48960000  0.25 0.0395559995
H  H72  1  0.29430000  0.14130000  0.48960000  0.25 0.0395559995
H  H73  1  0.79430000  0.35870000  0.51040000  0.25 0.0395559995
H  H74  1  0.20570000  0.64130000  0.51040000  0.25 0.0395559995
H  H75  1  0.20570000  0.35870000  0.48960000  0.25 0.0395559995
H  H76  1  0.79430000  0.64130000  0.48960000  0.25 0.0395559995
H  H77  1  0.79430000  0.85870000  0.01040000  0.25 0.0395559995
H  H78  1  0.20570000  0.14130000  0.01040000  0.25 0.0395559995
H  H79  1  0.20570000  0.85870000  0.98960000  0.25 0.0395559995
H  H80  1  0.79430000  0.14130000  0.98960000  0.25 0.0519356139
H  H81  1  0.70570000  0.64130000  0.98960000  0.25 0.0519356139
H  H82  1  0.29430000  0.35870000  0.98960000  0.25 0.0395559995
H  H83  1  0.29430000  0.64130000  0.01040000  0.25 0.0395559995
H  H84  1  0.70570000  0.35870000  0.01040000  0.25 0.0395559995
H  H85  1  0.70570000  0.14130000  0.48960000  0.25 0.0395559995
H  H86  1  0.29430000  0.85870000  0.48960000  0.25 0.0395559995
H  H87  1  0.29430000  0.14130000  0.51040000  0.25 0.0395559995
H  H88  1  0.70570000  0.85870000  0.51040000  0.25 0.0395559995
H  H89  1  0.20570000  0.64130000  0.48960000  0.25 0.0395559995
H  H90  1  0.79430000  0.35870000  0.48960000  0.25 0.0395559995
H  H91  1  0.79430000  0.64130000  0.51040000  0.25 0.0395559995
H  H92  1  0.20570000  0.35870000  0.51040000  0.25 0.0395559995
H  H93  1  0.20570000  0.14130000  0.98960000  0.25 0.0395559995
H  H94  1  0.79430000  0.85870000  0.98960000  0.25 0.0519356139
H  H95  1  0.79430000  0.14130000  0.01040000  0.25 0.0395559995
H  H96  1  0.20570000  0.85870000  0.01040000  0.25 0.0395559995
H  H97  1  0.31910000  0.34430000  0.02250000  0.25 0.0519356139
H  H98  1  0.68090000  0.65570000  0.02250000  0.25 0.0519356139
H  H99  1  0.68090000  0.34430000  0.97750000  0.25 0.0519356139
H  H100  1  0.31910000  0.65570000  0.97750000  0.25 0.0519356139
H  H101  1  0.31910000  0.84430000  0.52250000  0.25 0.0519356139
H  H102  1  0.68090000  0.15570000  0.52250000  0.25 0.0519356139
H  H103  1  0.68090000  0.84430000  0.47750000  0.25 0.0519356139
H  H104  1  0.31910000  0.15570000  0.47750000  0.25 0.0519356139
H  H105  1  0.81910000  0.34430000  0.52250000  0.25 0.0519356139
H  H106  1  0.18090000  0.65570000  0.52250000  0.25 0.0519356139
H  H107  1  0.18090000  0.34430000  0.47750000  0.25 0.0519356139
H  H108  1  0.81910000  0.65570000  0.47750000  0.25 0.0519356139
H  H109  1  0.81910000  0.84430000  0.02250000  0.25 0.0519356139
H  H110  1  0.18090000  0.15570000  0.02250000  0.25 0.0519356139
H  H111  1  0.18090000  0.84430000  0.97750000  0.25 0.0519356139
H  H112  1  0.81910000  0.15570000  0.97750000  0.25 0.0519356139
H  H113  1  0.68090000  0.65570000  0.97750000  0.25 0.0519356139
H  H114  1  0.31910000  0.34430000  0.97750000  0.25 0.0519356139
H  H115  1  0.31910000  0.65570000  0.02250000  0.25 0.0519356139
H  H116  1  0.68090000  0.34430000  0.02250000  0.25 0.0519356139
H  H117  1  0.68090000  0.15570000  0.47750000  0.25 0.0519356139
H  H118  1  0.31910000  0.84430000  0.47750000  0.25 0.0519356139
H  H119  1  0.31910000  0.15570000  0.52250000  0.25 0.0519356139
H  H120  1  0.68090000  0.84430000  0.52250000  0.25 0.0519356139
H  H121  1  0.18090000  0.65570000  0.47750000  0.25 0.0519356139
H  H122  1  0.81910000  0.34430000  0.47750000  0.25 0.0519356139
H  H123  1  0.81910000  0.65570000  0.52250000  0.25 0.0519356139
H  H124  1  0.18090000  0.34430000  0.52250000  0.25 0.0519356139
H  H125  1  0.18090000  0.15570000  0.97750000  0.25 0.0519356139
H  H126  1  0.81910000  0.84430000  0.97750000  0.25 0.0519356139
H  H127  1  0.81910000  0.15570000  0.02250000  0.25 0.0519356139
H  H128  1  0.18090000  0.84430000  0.02250000  0.25 0.0519356139
H  H129  1  0.29560000  0.35790000  0.98790000  0.25 0.0395559995
H  H130  1  0.70440000  0.64210000  0.98790000  0.25 0.0395559995
H  H131  1  0.70440000  0.35790000  0.01210000  0.25 0.0395559995
H  H132  1  0.29560000  0.64210000  0.01210000  0.25 0.0395559995
H  H133  1  0.29560000  0.85790000  0.48790000  0.25 0.0395559995
H  H134  1  0.70440000  0.14210000  0.48790000  0.25 0.0395559995
H  H135  1  0.70440000  0.85790000  0.51210000  0.25 0.0395559995
H  H136  1  0.29560000  0.14210000  0.51210000  0.25 0.0395559995
H  H137  1  0.79560000  0.35790000  0.48790000  0.25 0.0395559995
H  H138  1  0.20440000  0.64210000  0.48790000  0.25 0.0395559995
H  H139  1  0.20440000  0.35790000  0.51210000  0.25 0.0395559995
H  H140  1  0.79560000  0.64210000  0.51210000  0.25 0.0395559995
H  H141  1  0.79560000  0.85790000  0.98790000  0.25 0.0395559995
H  H142  1  0.20440000  0.14210000  0.98790000  0.25 0.0395559995
H  H143  1  0.20440000  0.85790000  0.01210000  0.25 0.0395559995
H  H144  1  0.79560000  0.14210000  0.01210000  0.25 0.0395559995
H  H145  1  0.70440000  0.64210000  0.01210000  0.25 0.0395559995
H  H146  1  0.29560000  0.35790000  0.01210000  0.25 0.0395559995
H  H147  1  0.29560000  0.64210000  0.98790000  0.25 0.0395559995
H  H148  1  0.70440000  0.35790000  0.98790000  0.25 0.0395559995
H  H149  1  0.70440000  0.14210000  0.51210000  0.25 0.0395559995
H  H150  1  0.29560000  0.85790000  0.51210000  0.25 0.0395559995
H  H151  1  0.29560000  0.14210000  0.48790000  0.25 0.0395559995
H  H152  1  0.70440000  0.85790000  0.48790000  0.25 0.0395559995
H  H153  1  0.20440000  0.64210000  0.51210000  0.25 0.0395559995
H  H154  1  0.79560000  0.35790000  0.51210000  0.25 0.0395559995
H  H155  1  0.79560000  0.64210000  0.48790000  0.25 0.0395559995
H  H156  1  0.20440000  0.35790000  0.48790000  0.25 0.0395559995
H  H157  1  0.20440000  0.14210000  0.01210000  0.25 0.0395559995
H  H158  1  0.79560000  0.85790000  0.01210000  0.25 0.0395559995
H  H159  1  0.79560000  0.14210000  0.98790000  0.25 0.0395559995
H  H160  1  0.20440000  0.85790000  0.98790000  0.25 0.0395559995
H  H161  1  0.34650000  0.32850000  0.98960000  0.25 0.0395559995
H  H162  1  0.65350000  0.67150000  0.98960000  0.25 0.0395559995
H  H163  1  0.65350000  0.32850000  0.01040000  0.25 0.0395559995
H  H164  1  0.34650000  0.67150000  0.01040000  0.25 0.0320846601
H  H165  1  0.34650000  0.82850000  0.48960000  0.25 0.0320846601
H  H166  1  0.65350000  0.17150000  0.48960000  0.25 0.0320846601
H  H167  1  0.65350000  0.82850000  0.51040000  0.25 0.0395559995
H  H168  1  0.34650000  0.17150000  0.51040000  0.25 0.0395559995
H  H169  1  0.84650000  0.32850000  0.48960000  0.25 0.0320846601
H  H170  1  0.15350000  0.67150000  0.48960000  0.25 0.0320846601
H  H171  1  0.15350000  0.32850000  0.51040000  0.25 0.0320846601
H  H172  1  0.84650000  0.67150000  0.51040000  0.25 0.0395559995
H  H173  1  0.84650000  0.82850000  0.98960000  0.25 0.0395559995
H  H174  1  0.15350000  0.17150000  0.98960000  0.25 0.0395559995
H  H175  1  0.15350000  0.82850000  0.01040000  0.25 0.0320846601
H  H176  1  0.84650000  0.17150000  0.01040000  0.25 0.0395559995
H  H177  1  0.65350000  0.67150000  0.01040000  0.25 0.0395559995
H  H178  1  0.34650000  0.32850000  0.01040000  0.25 0.0320846601
H  H179  1  0.34650000  0.67150000  0.98960000  0.25 0.0395559995
H  H180  1  0.65350000  0.32850000  0.98960000  0.25 0.0395559995
H  H181  1  0.65350000  0.17150000  0.51040000  0.25 0.0395559995
H  H182  1  0.34650000  0.82850000  0.51040000  0.25 0.0320846601
H  H183  1  0.34650000  0.17150000  0.48960000  0.25 0.0320846601
H  H184  1  0.65350000  0.82850000  0.48960000  0.25 0.0320846601
H  H185  1  0.15350000  0.67150000  0.51040000  0.25 0.0320846601
H  H186  1  0.84650000  0.32850000  0.51040000  0.25 0.0395559995
H  H187  1  0.84650000  0.67150000  0.48960000  0.25 0.0320846601
H  H188  1  0.15350000  0.32850000  0.48960000  0.25 0.0320846601
H  H189  1  0.15350000  0.17150000  0.01040000  0.25 0.0320846601
H  H190  1  0.84650000  0.82850000  0.01040000  0.25 0.0395559995
H  H191  1  0.84650000  0.17150000  0.98960000  0.25 0.0395559995
H  H192  1  0.15350000  0.82850000  0.98960000  0.25 0.0395559995
C  C1  1  0.31380000  0.33410000  0.00000000  1.0 -0.3035829854
C  C2  1  0.68620000  0.66590000  0.00000000  1.0 -0.3035829854
C  C3  1  0.68620000  0.33410000  0.00000000  1.0 -0.3035829854
C  C4  1  0.31380000  0.66590000  0.00000000  1.0 -0.3035829854
C  C5  1  0.31380000  0.83410000  0.50000000  1.0 -0.2883535442
C  C6  1  0.68620000  0.16590000  0.50000000  1.0 -0.2883535442
C  C7  1  0.68620000  0.83410000  0.50000000  1.0 -0.2883535442
C  C8  1  0.31380000  0.16590000  0.50000000  1.0 -0.2883535442
C  C9  1  0.81380000  0.33410000  0.50000000  1.0 -0.2883535442
C  C10  1  0.18620000  0.66590000  0.50000000  1.0 -0.2883535442
C  C11  1  0.18620000  0.33410000  0.50000000  1.0 -0.2883535442
C  C12  1  0.81380000  0.66590000  0.50000000  1.0 -0.2883535442
C  C13  1  0.81380000  0.83410000  0.00000000  1.0 -0.3035829854
C  C14  1  0.18620000  0.16590000  0.00000000  1.0 -0.3035829854
C  C15  1  0.18620000  0.83410000  0.00000000  1.0 -0.3035829854
C  C16  1  0.81380000  0.16590000  0.00000000  1.0 -0.3035829854
C  C17  1  0.28230000  0.28930000  0.00000000  1.0 0.0887277178
C  C18  1  0.71770000  0.71070000  0.00000000  1.0 0.0887277178
C  C19  1  0.71770000  0.28930000  0.00000000  1.0 0.0887277178
C  C20  1  0.28230000  0.71070000  0.00000000  1.0 0.0887277178
C  C21  1  0.28230000  0.78930000  0.50000000  1.0 0.0887277178
C  C22  1  0.71770000  0.21070000  0.50000000  1.0 0.0887277178
C  C23  1  0.71770000  0.78930000  0.50000000  1.0 0.0887277178
C  C24  1  0.28230000  0.21070000  0.50000000  1.0 0.0887277178
C  C25  1  0.78230000  0.28930000  0.50000000  1.0 0.0887277178
C  C26  1  0.21770000  0.71070000  0.50000000  1.0 0.0887277178
C  C27  1  0.21770000  0.28930000  0.50000000  1.0 0.0887277178
C  C28  1  0.78230000  0.71070000  0.50000000  1.0 0.0887277178
C  C29  1  0.78230000  0.78930000  0.00000000  1.0 0.0887277178
C  C30  1  0.21770000  0.21070000  0.00000000  1.0 0.0887277178
C  C31  1  0.21770000  0.78930000  0.00000000  1.0 0.0887277178
C  C32  1  0.78230000  0.21070000  0.00000000  1.0 0.0887277178
C  C33  1  0.26560000  0.26900000  0.02997000  1.0 -0.0728354898
C  C34  1  0.73440000  0.73100000  0.02997000  1.0 -0.0728354898
C  C35  1  0.73440000  0.26900000  0.97003000  1.0 -0.0757969361
C  C36  1  0.26560000  0.73100000  0.97003000  1.0 -0.0757969361
C  C37  1  0.26560000  0.76900000  0.52997000  1.0 -0.0728354898
C  C38  1  0.73440000  0.23100000  0.52997000  1.0 -0.0728354898
C  C39  1  0.73440000  0.76900000  0.47003000  1.0 -0.0728354898
C  C40  1  0.26560000  0.23100000  0.47003000  1.0 -0.0728354898
C  C41  1  0.76560000  0.26900000  0.52997000  1.0 -0.0728354898
C  C42  1  0.23440000  0.73100000  0.52997000  1.0 -0.0728354898
C  C43  1  0.23440000  0.26900000  0.47003000  1.0 -0.0728354898
C  C44  1  0.76560000  0.73100000  0.47003000  1.0 -0.0728354898
C  C45  1  0.76560000  0.76900000  0.02997000  1.0 -0.0728354898
C  C46  1  0.23440000  0.23100000  0.02997000  1.0 -0.0728354898
C  C47  1  0.23440000  0.76900000  0.97003000  1.0 -0.0757969361
C  C48  1  0.76560000  0.23100000  0.97003000  1.0 -0.0757969361
C  C49  1  0.73440000  0.73100000  0.97003000  1.0 -0.0757969361
C  C50  1  0.26560000  0.26900000  0.97003000  1.0 -0.0757969361
C  C51  1  0.26560000  0.73100000  0.02997000  1.0 -0.0728354898
C  C52  1  0.73440000  0.26900000  0.02997000  1.0 -0.0728354898
C  C53  1  0.73440000  0.23100000  0.47003000  1.0 -0.0728354898
C  C54  1  0.26560000  0.76900000  0.47003000  1.0 -0.0728354898
C  C55  1  0.26560000  0.23100000  0.52997000  1.0 -0.0728354898
C  C56  1  0.73440000  0.76900000  0.52997000  1.0 -0.0728354898
C  C57  1  0.23440000  0.73100000  0.47003000  1.0 -0.0728354898
C  C58  1  0.76560000  0.26900000  0.47003000  1.0 -0.0728354898
C  C59  1  0.76560000  0.73100000  0.52997000  1.0 -0.0728354898
C  C60  1  0.23440000  0.26900000  0.52997000  1.0 -0.0728354898
C  C61  1  0.23440000  0.23100000  0.97003000  1.0 -0.0757969361
C  C62  1  0.76560000  0.76900000  0.97003000  1.0 -0.0728354898
C  C63  1  0.76560000  0.23100000  0.02997000  1.0 -0.0728354898
C  C64  1  0.23440000  0.76900000  0.02997000  1.0 -0.0728354898
C  C65  1  0.28340000  0.29030000  0.06250000  1.0 0.0784116432
C  C66  1  0.71660000  0.70970000  0.06250000  1.0 0.0784116432
C  C67  1  0.71660000  0.29030000  0.93750000  1.0 0.0784116432
C  C68  1  0.28340000  0.70970000  0.93750000  1.0 0.0784116432
C  C69  1  0.28340000  0.79030000  0.56250000  1.0 0.0784116432
C  C70  1  0.71660000  0.20970000  0.56250000  1.0 0.0784116432
C  C71  1  0.71660000  0.79030000  0.43750000  1.0 0.0784116432
C  C72  1  0.28340000  0.20970000  0.43750000  1.0 0.0784116432
C  C73  1  0.78340000  0.29030000  0.56250000  1.0 0.0784116432
C  C74  1  0.21660000  0.70970000  0.56250000  1.0 0.0784116432
C  C75  1  0.21660000  0.29030000  0.43750000  1.0 0.0784116432
C  C76  1  0.78340000  0.70970000  0.43750000  1.0 0.0784116432
C  C77  1  0.78340000  0.79030000  0.06250000  1.0 0.0784116432
C  C78  1  0.21660000  0.20970000  0.06250000  1.0 0.0784116432
C  C79  1  0.21660000  0.79030000  0.93750000  1.0 0.0784116432
C  C80  1  0.78340000  0.20970000  0.93750000  1.0 0.0784116432
C  C81  1  0.71660000  0.70970000  0.93750000  1.0 0.0784116432
C  C82  1  0.28340000  0.29030000  0.93750000  1.0 0.0784116432
C  C83  1  0.28340000  0.70970000  0.06250000  1.0 0.0784116432
C  C84  1  0.71660000  0.29030000  0.06250000  1.0 0.0784116432
C  C85  1  0.71660000  0.20970000  0.43750000  1.0 0.0784116432
C  C86  1  0.28340000  0.79030000  0.43750000  1.0 0.0784116432
C  C87  1  0.28340000  0.20970000  0.56250000  1.0 0.0784116432
C  C88  1  0.71660000  0.79030000  0.56250000  1.0 0.0784116432
C  C89  1  0.21660000  0.70970000  0.43750000  1.0 0.0784116432
C  C90  1  0.78340000  0.29030000  0.43750000  1.0 0.0784116432
C  C91  1  0.78340000  0.70970000  0.56250000  1.0 0.0784116432
C  C92  1  0.21660000  0.29030000  0.56250000  1.0 0.0784116432
C  C93  1  0.21660000  0.20970000  0.93750000  1.0 0.0784116432
C  C94  1  0.78340000  0.79030000  0.93750000  1.0 0.0784116432
C  C95  1  0.78340000  0.20970000  0.06250000  1.0 0.0784116432
C  C96  1  0.21660000  0.79030000  0.06250000  1.0 0.0784116432
C  C97  1  0.33550000  0.28580000  0.07261000  1.0 -0.1562190076
C  C98  1  0.66450000  0.71420000  0.07261000  1.0 -0.1562190076
C  C99  1  0.66450000  0.28580000  0.92739000  1.0 -0.1562190076
C  C100  1  0.33550000  0.71420000  0.92739000  1.0 -0.1562190076
C  C101  1  0.33550000  0.78580000  0.57261000  1.0 -0.1526409516
C  C102  1  0.66450000  0.21420000  0.57261000  1.0 -0.1526409516
C  C103  1  0.66450000  0.78580000  0.42739000  1.0 -0.1562190076
C  C104  1  0.33550000  0.21420000  0.42739000  1.0 -0.1562190076
C  C105  1  0.83550000  0.28580000  0.57261000  1.0 -0.1526409516
C  C106  1  0.16450000  0.71420000  0.57261000  1.0 -0.1526409516
C  C107  1  0.16450000  0.28580000  0.42739000  1.0 -0.1562190076
C  C108  1  0.83550000  0.71420000  0.42739000  1.0 -0.1562190076
C  C109  1  0.83550000  0.78580000  0.07261000  1.0 -0.1526409516
C  C110  1  0.16450000  0.21420000  0.07261000  1.0 -0.1562190076
C  C111  1  0.16450000  0.78580000  0.92739000  1.0 -0.1562190076
C  C112  1  0.83550000  0.21420000  0.92739000  1.0 -0.1562190076
C  C113  1  0.66450000  0.71420000  0.92739000  1.0 -0.1526409516
C  C114  1  0.33550000  0.28580000  0.92739000  1.0 -0.1562190076
C  C115  1  0.33550000  0.71420000  0.07261000  1.0 -0.1562190076
C  C116  1  0.66450000  0.28580000  0.07261000  1.0 -0.1562190076
C  C117  1  0.66450000  0.21420000  0.42739000  1.0 -0.1562190076
C  C118  1  0.33550000  0.78580000  0.42739000  1.0 -0.1562190076
C  C119  1  0.33550000  0.21420000  0.57261000  1.0 -0.1526409516
C  C120  1  0.66450000  0.78580000  0.57261000  1.0 -0.1526409516
C  C121  1  0.16450000  0.71420000  0.42739000  1.0 -0.1562190076
C  C122  1  0.83550000  0.28580000  0.42739000  1.0 -0.1562190076
C  C123  1  0.83550000  0.71420000  0.57261000  1.0 -0.1526409516
C  C124  1  0.16450000  0.28580000  0.57261000  1.0 -0.1526409516
C  C125  1  0.16450000  0.21420000  0.92739000  1.0 -0.1562190076
C  C126  1  0.83550000  0.78580000  0.92739000  1.0 -0.1526409516
C  C127  1  0.83550000  0.21420000  0.07261000  1.0 -0.1562190076
C  C128  1  0.16450000  0.78580000  0.07261000  1.0 -0.1562190076
C  C129  1  0.24970000  0.31200000  0.08395000  1.0 -0.1923917104
C  C130  1  0.75030000  0.68800000  0.08395000  1.0 -0.1923917104
C  C131  1  0.75030000  0.31200000  0.91605000  1.0 -0.1923917104
C  C132  1  0.24970000  0.68800000  0.91605000  1.0 -0.1923917104
C  C133  1  0.24970000  0.81200000  0.58395000  1.0 -0.1961209517
C  C134  1  0.75030000  0.18800000  0.58395000  1.0 -0.1961209517
C  C135  1  0.75030000  0.81200000  0.41605000  1.0 -0.1923917104
C  C136  1  0.24970000  0.18800000  0.41605000  1.0 -0.1961209517
C  C137  1  0.74970000  0.31200000  0.58395000  1.0 -0.1961209517
C  C138  1  0.25030000  0.68800000  0.58395000  1.0 -0.1961209517
C  C139  1  0.25030000  0.31200000  0.41605000  1.0 -0.1961209517
C  C140  1  0.74970000  0.68800000  0.41605000  1.0 -0.1923917104
C  C141  1  0.74970000  0.81200000  0.08395000  1.0 -0.1923917104
C  C142  1  0.25030000  0.18800000  0.08395000  1.0 -0.1923917104
C  C143  1  0.25030000  0.81200000  0.91605000  1.0 -0.1923917104
C  C144  1  0.74970000  0.18800000  0.91605000  1.0 -0.1923917104
C  C145  1  0.75030000  0.68800000  0.91605000  1.0 -0.1923917104
C  C146  1  0.24970000  0.31200000  0.91605000  1.0 -0.1923917104
C  C147  1  0.24970000  0.68800000  0.08395000  1.0 -0.1923917104
C  C148  1  0.75030000  0.31200000  0.08395000  1.0 -0.1923917104
C  C149  1  0.75030000  0.18800000  0.41605000  1.0 -0.1961209517
C  C150  1  0.24970000  0.81200000  0.41605000  1.0 -0.1961209517
C  C151  1  0.24970000  0.18800000  0.58395000  1.0 -0.1961209517
C  C152  1  0.75030000  0.81200000  0.58395000  1.0 -0.1923917104
C  C153  1  0.25030000  0.68800000  0.41605000  1.0 -0.1961209517
C  C154  1  0.74970000  0.31200000  0.41605000  1.0 -0.1961209517
C  C155  1  0.74970000  0.68800000  0.58395000  1.0 -0.1923917104
C  C156  1  0.25030000  0.31200000  0.58395000  1.0 -0.1961209517
C  C157  1  0.25030000  0.18800000  0.91605000  1.0 -0.1923917104
C  C158  1  0.74970000  0.81200000  0.91605000  1.0 -0.1923917104
C  C159  1  0.74970000  0.18800000  0.08395000  1.0 -0.1923917104
C  C160  1  0.25030000  0.81200000  0.08395000  1.0 -0.1923917104
C  C161  1  0.35090000  0.30230000  0.10335000  1.0 -0.2282153914
C  C162  1  0.64910000  0.69770000  0.10335000  1.0 -0.2240820792
C  C163  1  0.64910000  0.30230000  0.89665000  1.0 -0.2240820792
C  C164  1  0.35090000  0.69770000  0.89665000  1.0 -0.2282153914
C  C165  1  0.35090000  0.80230000  0.60335000  1.0 -0.2282153914
C  C166  1  0.64910000  0.19770000  0.60335000  1.0 -0.2282153914
C  C167  1  0.64910000  0.80230000  0.39665000  1.0 -0.2282153914
C  C168  1  0.35090000  0.19770000  0.39665000  1.0 -0.2282153914
C  C169  1  0.85090000  0.30230000  0.60335000  1.0 -0.2282153914
C  C170  1  0.14910000  0.69770000  0.60335000  1.0 -0.2282153914
C  C171  1  0.14910000  0.30230000  0.39665000  1.0 -0.2282153914
C  C172  1  0.85090000  0.69770000  0.39665000  1.0 -0.2282153914
C  C173  1  0.85090000  0.80230000  0.10335000  1.0 -0.2240820792
C  C174  1  0.14910000  0.19770000  0.10335000  1.0 -0.2282153914
C  C175  1  0.14910000  0.80230000  0.89665000  1.0 -0.2282153914
C  C176  1  0.85090000  0.19770000  0.89665000  1.0 -0.2240820792
C  C177  1  0.64910000  0.69770000  0.89665000  1.0 -0.2240820792
C  C178  1  0.35090000  0.30230000  0.89665000  1.0 -0.2282153914
C  C179  1  0.35090000  0.69770000  0.10335000  1.0 -0.2282153914
C  C180  1  0.64910000  0.30230000  0.10335000  1.0 -0.2282153914
C  C181  1  0.64910000  0.19770000  0.39665000  1.0 -0.2282153914
C  C182  1  0.35090000  0.80230000  0.39665000  1.0 -0.2282153914
C  C183  1  0.35090000  0.19770000  0.60335000  1.0 -0.2282153914
C  C184  1  0.64910000  0.80230000  0.60335000  1.0 -0.2282153914
C  C185  1  0.14910000  0.69770000  0.39665000  1.0 -0.2282153914
C  C186  1  0.85090000  0.30230000  0.39665000  1.0 -0.2282153914
C  C187  1  0.85090000  0.69770000  0.60335000  1.0 -0.2282153914
C  C188  1  0.14910000  0.30230000  0.60335000  1.0 -0.2282153914
C  C189  1  0.14910000  0.19770000  0.89665000  1.0 -0.2282153914
C  C190  1  0.85090000  0.80230000  0.89665000  1.0 -0.2240820792
C  C191  1  0.85090000  0.19770000  0.10335000  1.0 -0.2282153914
C  C192  1  0.14910000  0.80230000  0.10335000  1.0 -0.2282153914
C  C193  1  0.26630000  0.32890000  0.11389000  1.0 -0.1388319283
C  C194  1  0.73370000  0.67110000  0.11389000  1.0 -0.1388319283
C  C195  1  0.73370000  0.32890000  0.88611000  1.0 -0.1388319283
C  C196  1  0.26630000  0.67110000  0.88611000  1.0 -0.1388319283
C  C197  1  0.26630000  0.82890000  0.61389000  1.0 -0.1388319283
C  C198  1  0.73370000  0.17110000  0.61389000  1.0 -0.1388319283
C  C199  1  0.73370000  0.82890000  0.38611000  1.0 -0.1388319283
C  C200  1  0.26630000  0.17110000  0.38611000  1.0 -0.1526409516
C  C201  1  0.76630000  0.32890000  0.61389000  1.0 -0.1388319283
C  C202  1  0.23370000  0.67110000  0.61389000  1.0 -0.1388319283
C  C203  1  0.23370000  0.32890000  0.38611000  1.0 -0.1388319283
C  C204  1  0.76630000  0.67110000  0.38611000  1.0 -0.1388319283
C  C205  1  0.76630000  0.82890000  0.11389000  1.0 -0.1388319283
C  C206  1  0.23370000  0.17110000  0.11389000  1.0 -0.1388319283
C  C207  1  0.23370000  0.82890000  0.88611000  1.0 -0.1388319283
C  C208  1  0.76630000  0.17110000  0.88611000  1.0 -0.1388319283
C  C209  1  0.73370000  0.67110000  0.88611000  1.0 -0.1388319283
C  C210  1  0.26630000  0.32890000  0.88611000  1.0 -0.1388319283
C  C211  1  0.26630000  0.67110000  0.11389000  1.0 -0.1388319283
C  C212  1  0.73370000  0.32890000  0.11389000  1.0 -0.1388319283
C  C213  1  0.73370000  0.17110000  0.38611000  1.0 -0.1388319283
C  C214  1  0.26630000  0.82890000  0.38611000  1.0 -0.1388319283
C  C215  1  0.26630000  0.17110000  0.61389000  1.0 -0.1388319283
C  C216  1  0.73370000  0.82890000  0.61389000  1.0 -0.1388319283
C  C217  1  0.23370000  0.67110000  0.38611000  1.0 -0.1388319283
C  C218  1  0.76630000  0.32890000  0.38611000  1.0 -0.1388319283
C  C219  1  0.76630000  0.67110000  0.61389000  1.0 -0.1388319283
C  C220  1  0.23370000  0.32890000  0.61389000  1.0 -0.1388319283
C  C221  1  0.23370000  0.17110000  0.88611000  1.0 -0.1388319283
C  C222  1  0.76630000  0.82890000  0.88611000  1.0 -0.1388319283
C  C223  1  0.76630000  0.17110000  0.11389000  1.0 -0.1388319283
C  C224  1  0.23370000  0.82890000  0.11389000  1.0 -0.1388319283
C  C225  1  0.31760000  0.32390000  0.12416000  1.0 0.023571656
C  C226  1  0.68240000  0.67610000  0.12416000  1.0 0.023571656
C  C227  1  0.68240000  0.32390000  0.87584000  1.0 0.023571656
C  C228  1  0.31760000  0.67610000  0.87584000  1.0 0.023571656
C  C229  1  0.31760000  0.82390000  0.62416000  1.0 0.023571656
C  C230  1  0.68240000  0.17610000  0.62416000  1.0 0.023571656
C  C231  1  0.68240000  0.82390000  0.37584000  1.0 0.0320846601
C  C232  1  0.31760000  0.17610000  0.37584000  1.0 0.023571656
C  C233  1  0.81760000  0.32390000  0.62416000  1.0 0.023571656
C  C234  1  0.18240000  0.67610000  0.62416000  1.0 0.023571656
C  C235  1  0.18240000  0.32390000  0.37584000  1.0 0.023571656
C  C236  1  0.81760000  0.67610000  0.37584000  1.0 0.0320846601
C  C237  1  0.81760000  0.82390000  0.12416000  1.0 0.023571656
C  C238  1  0.18240000  0.17610000  0.12416000  1.0 0.023571656
C  C239  1  0.18240000  0.82390000  0.87584000  1.0 0.023571656
C  C240  1  0.81760000  0.17610000  0.87584000  1.0 0.023571656
C  C241  1  0.68240000  0.67610000  0.87584000  1.0 0.023571656
C  C242  1  0.31760000  0.32390000  0.87584000  1.0 0.023571656
C  C243  1  0.31760000  0.67610000  0.12416000  1.0 0.023571656
C  C244  1  0.68240000  0.32390000  0.12416000  1.0 0.023571656
C  C245  1  0.68240000  0.17610000  0.37584000  1.0 0.0320846601
C  C246  1  0.31760000  0.82390000  0.37584000  1.0 0.0320846601
C  C247  1  0.31760000  0.17610000  0.62416000  1.0 0.023571656
C  C248  1  0.68240000  0.82390000  0.62416000  1.0 0.023571656
C  C249  1  0.18240000  0.67610000  0.37584000  1.0 0.0320846601
C  C250  1  0.81760000  0.32390000  0.37584000  1.0 0.0320846601
C  C251  1  0.81760000  0.67610000  0.62416000  1.0 0.023571656
C  C252  1  0.18240000  0.32390000  0.62416000  1.0 0.023571656
C  C253  1  0.18240000  0.17610000  0.87584000  1.0 0.023571656
C  C254  1  0.81760000  0.82390000  0.87584000  1.0 0.023571656
C  C255  1  0.81760000  0.17610000  0.12416000  1.0 0.023571656
C  C256  1  0.18240000  0.82390000  0.12416000  1.0 0.023571656
C  C257  1  0.33440000  0.34053000  0.15802000  1.0 0.0991337109
C  C258  1  0.66560000  0.65947000  0.15802000  1.0 0.0991337109
C  C259  1  0.66560000  0.34053000  0.84198000  1.0 0.0991337109
C  C260  1  0.33440000  0.65947000  0.84198000  1.0 0.0991337109
C  C261  1  0.33440000  0.84053000  0.65802000  1.0 0.0991337109
C  C262  1  0.66560000  0.15947000  0.65802000  1.0 0.0991337109
C  C263  1  0.66560000  0.84053000  0.34198000  1.0 0.0991337109
C  C264  1  0.33440000  0.15947000  0.34198000  1.0 0.0991337109
C  C265  1  0.83440000  0.34053000  0.65802000  1.0 0.0991337109
C  C266  1  0.16560000  0.65947000  0.65802000  1.0 0.0991337109
C  C267  1  0.16560000  0.34053000  0.34198000  1.0 0.0991337109
C  C268  1  0.83440000  0.65947000  0.34198000  1.0 0.0991337109
C  C269  1  0.83440000  0.84053000  0.15802000  1.0 0.0991337109
C  C270  1  0.16560000  0.15947000  0.15802000  1.0 0.0991337109
C  C271  1  0.16560000  0.84053000  0.84198000  1.0 0.0991337109
C  C272  1  0.83440000  0.15947000  0.84198000  1.0 0.0991337109
C  C273  1  0.66560000  0.65947000  0.84198000  1.0 0.0991337109
C  C274  1  0.33440000  0.34053000  0.84198000  1.0 0.0991337109
C  C275  1  0.33440000  0.65947000  0.15802000  1.0 0.0991337109
C  C276  1  0.66560000  0.34053000  0.15802000  1.0 0.0991337109
C  C277  1  0.66560000  0.15947000  0.34198000  1.0 0.0991337109
C  C278  1  0.33440000  0.84053000  0.34198000  1.0 0.0991337109
C  C279  1  0.33440000  0.15947000  0.65802000  1.0 0.0991337109
C  C280  1  0.66560000  0.84053000  0.65802000  1.0 0.0991337109
C  C281  1  0.16560000  0.65947000  0.34198000  1.0 0.0991337109
C  C282  1  0.83440000  0.34053000  0.34198000  1.0 0.0991337109
C  C283  1  0.83440000  0.65947000  0.65802000  1.0 0.0991337109
C  C284  1  0.16560000  0.34053000  0.65802000  1.0 0.0991337109
C  C285  1  0.16560000  0.15947000  0.84198000  1.0 0.0991337109
C  C286  1  0.83440000  0.84053000  0.84198000  1.0 0.0991337109
C  C287  1  0.83440000  0.15947000  0.15802000  1.0 0.0991337109
C  C288  1  0.16560000  0.84053000  0.15802000  1.0 0.0991337109
C  C289  1  0.37370000  0.31640000  0.17531000  1.0 -0.1173471983
C  C290  1  0.62630000  0.68360000  0.17531000  1.0 -0.1173471983
C  C291  1  0.62630000  0.31640000  0.82469000  1.0 -0.1173471983
C  C292  1  0.37370000  0.68360000  0.82469000  1.0 -0.1173471983
C  C293  1  0.37370000  0.81640000  0.67531000  1.0 -0.1173471983
C  C294  1  0.62630000  0.18360000  0.67531000  1.0 -0.1173471983
C  C295  1  0.62630000  0.81640000  0.32469000  1.0 -0.1173471983
C  C296  1  0.37370000  0.18360000  0.32469000  1.0 -0.1173471983
C  C297  1  0.87370000  0.31640000  0.67531000  1.0 -0.1173471983
C  C298  1  0.12630000  0.68360000  0.67531000  1.0 -0.1173471983
C  C299  1  0.12630000  0.31640000  0.32469000  1.0 -0.1173471983
C  C300  1  0.87370000  0.68360000  0.32469000  1.0 -0.1173471983
C  C301  1  0.87370000  0.81640000  0.17531000  1.0 -0.1173471983
C  C302  1  0.12630000  0.18360000  0.17531000  1.0 -0.1173471983
C  C303  1  0.12630000  0.81640000  0.82469000  1.0 -0.1173471983
C  C304  1  0.87370000  0.18360000  0.82469000  1.0 -0.1173471983
C  C305  1  0.62630000  0.68360000  0.82469000  1.0 -0.1173471983
C  C306  1  0.37370000  0.31640000  0.82469000  1.0 -0.1173471983
C  C307  1  0.37370000  0.68360000  0.17531000  1.0 -0.1173471983
C  C308  1  0.62630000  0.31640000  0.17531000  1.0 -0.1173471983
C  C309  1  0.62630000  0.18360000  0.32469000  1.0 -0.1173471983
C  C310  1  0.37370000  0.81640000  0.32469000  1.0 -0.1173471983
C  C311  1  0.37370000  0.18360000  0.67531000  1.0 -0.1173471983
C  C312  1  0.62630000  0.81640000  0.67531000  1.0 -0.1173471983
C  C313  1  0.12630000  0.68360000  0.32469000  1.0 -0.1173471983
C  C314  1  0.87370000  0.31640000  0.32469000  1.0 -0.1173471983
C  C315  1  0.87370000  0.68360000  0.67531000  1.0 -0.1173471983
C  C316  1  0.12630000  0.31640000  0.67531000  1.0 -0.1173471983
C  C317  1  0.12630000  0.18360000  0.82469000  1.0 -0.1173471983
C  C318  1  0.87370000  0.81640000  0.82469000  1.0 -0.1173471983
C  C319  1  0.87370000  0.18360000  0.17531000  1.0 -0.1173471983
C  C320  1  0.12630000  0.81640000  0.17531000  1.0 -0.1173471983
C  C321  1  0.31080000  0.37800000  0.17342000  1.0 -0.1388319283
C  C322  1  0.68920000  0.62200000  0.17342000  1.0 -0.1388319283
C  C323  1  0.68920000  0.37800000  0.82658000  1.0 -0.1388319283
C  C324  1  0.31080000  0.62200000  0.82658000  1.0 -0.1388319283
C  C325  1  0.31080000  0.87800000  0.67342000  1.0 -0.1388319283
C  C326  1  0.68920000  0.12200000  0.67342000  1.0 -0.1388319283
C  C327  1  0.68920000  0.87800000  0.32658000  1.0 -0.1388319283
C  C328  1  0.31080000  0.12200000  0.32658000  1.0 -0.1388319283
C  C329  1  0.81080000  0.37800000  0.67342000  1.0 -0.1388319283
C  C330  1  0.18920000  0.62200000  0.67342000  1.0 -0.1388319283
C  C331  1  0.18920000  0.37800000  0.32658000  1.0 -0.1388319283
C  C332  1  0.81080000  0.62200000  0.32658000  1.0 -0.1388319283
C  C333  1  0.81080000  0.87800000  0.17342000  1.0 -0.1388319283
C  C334  1  0.18920000  0.12200000  0.17342000  1.0 -0.1388319283
C  C335  1  0.18920000  0.87800000  0.82658000  1.0 -0.1388319283
C  C336  1  0.81080000  0.12200000  0.82658000  1.0 -0.1388319283
C  C337  1  0.68920000  0.62200000  0.82658000  1.0 -0.1388319283
C  C338  1  0.31080000  0.37800000  0.82658000  1.0 -0.1388319283
C  C339  1  0.31080000  0.62200000  0.17342000  1.0 -0.1388319283
C  C340  1  0.68920000  0.37800000  0.17342000  1.0 -0.1388319283
C  C341  1  0.68920000  0.12200000  0.32658000  1.0 -0.1388319283
C  C342  1  0.31080000  0.87800000  0.32658000  1.0 -0.1388319283
C  C343  1  0.31080000  0.12200000  0.67342000  1.0 -0.1388319283
C  C344  1  0.68920000  0.87800000  0.67342000  1.0 -0.1388319283
C  C345  1  0.18920000  0.62200000  0.32658000  1.0 -0.1388319283
C  C346  1  0.81080000  0.37800000  0.32658000  1.0 -0.1388319283
C  C347  1  0.81080000  0.62200000  0.67342000  1.0 -0.1388319283
C  C348  1  0.18920000  0.37800000  0.67342000  1.0 -0.1388319283
C  C349  1  0.18920000  0.12200000  0.82658000  1.0 -0.1388319283
C  C350  1  0.81080000  0.87800000  0.82658000  1.0 -0.1388319283
C  C351  1  0.81080000  0.12200000  0.17342000  1.0 -0.1388319283
C  C352  1  0.18920000  0.87800000  0.17342000  1.0 -0.1388319283
C  C353  1  0.38920000  0.33030000  0.20623000  1.0 -0.013800016
C  C354  1  0.61080000  0.66970000  0.20623000  1.0 -0.013800016
C  C355  1  0.61080000  0.33030000  0.79377000  1.0 -0.013800016
C  C356  1  0.38920000  0.66970000  0.79377000  1.0 -0.013800016
C  C357  1  0.38920000  0.83030000  0.70623000  1.0 -0.013800016
C  C358  1  0.61080000  0.16970000  0.70623000  1.0 -0.013800016
C  C359  1  0.61080000  0.83030000  0.29377000  1.0 -0.013800016
C  C360  1  0.38920000  0.16970000  0.29377000  1.0 -0.013800016
C  C361  1  0.88920000  0.33030000  0.70623000  1.0 -0.013800016
C  C362  1  0.11080000  0.66970000  0.70623000  1.0 -0.013800016
C  C363  1  0.11080000  0.33030000  0.29377000  1.0 -0.013800016
C  C364  1  0.88920000  0.66970000  0.29377000  1.0 -0.013800016
C  C365  1  0.88920000  0.83030000  0.20623000  1.0 -0.013800016
C  C366  1  0.11080000  0.16970000  0.20623000  1.0 -0.013800016
C  C367  1  0.11080000  0.83030000  0.79377000  1.0 -0.013800016
C  C368  1  0.88920000  0.16970000  0.79377000  1.0 -0.013800016
C  C369  1  0.61080000  0.66970000  0.79377000  1.0 -0.013800016
C  C370  1  0.38920000  0.33030000  0.79377000  1.0 -0.013800016
C  C371  1  0.38920000  0.66970000  0.20623000  1.0 -0.013800016
C  C372  1  0.61080000  0.33030000  0.20623000  1.0 -0.013800016
C  C373  1  0.61080000  0.16970000  0.29377000  1.0 -0.013800016
C  C374  1  0.38920000  0.83030000  0.29377000  1.0 -0.013800016
C  C375  1  0.38920000  0.16970000  0.70623000  1.0 -0.013800016
C  C376  1  0.61080000  0.83030000  0.70623000  1.0 -0.013800016
C  C377  1  0.11080000  0.66970000  0.29377000  1.0 -0.013800016
C  C378  1  0.88920000  0.33030000  0.29377000  1.0 -0.013800016
C  C379  1  0.88920000  0.66970000  0.70623000  1.0 -0.013800016
C  C380  1  0.11080000  0.33030000  0.70623000  1.0 -0.013800016
C  C381  1  0.11080000  0.16970000  0.79377000  1.0 -0.0151900979
C  C382  1  0.88920000  0.83030000  0.79377000  1.0 -0.013800016
C  C383  1  0.88920000  0.16970000  0.20623000  1.0 -0.013800016
C  C384  1  0.11080000  0.83030000  0.20623000  1.0 -0.013800016
C  C385  1  0.32730000  0.39320000  0.20491000  1.0 -0.013800016
C  C386  1  0.67270000  0.60680000  0.20491000  1.0 -0.013800016
C  C387  1  0.67270000  0.39320000  0.79509000  1.0 -0.013800016
C  C388  1  0.32730000  0.60680000  0.79509000  1.0 -0.013800016
C  C389  1  0.32730000  0.89320000  0.70491000  1.0 -0.013800016
C  C390  1  0.67270000  0.10680000  0.70491000  1.0 -0.013800016
C  C391  1  0.67270000  0.89320000  0.29509000  1.0 -0.013800016
C  C392  1  0.32730000  0.10680000  0.29509000  1.0 -0.013800016
C  C393  1  0.82730000  0.39320000  0.70491000  1.0 -0.013800016
C  C394  1  0.17270000  0.60680000  0.70491000  1.0 -0.013800016
C  C395  1  0.17270000  0.39320000  0.29509000  1.0 -0.013800016
C  C396  1  0.82730000  0.60680000  0.29509000  1.0 -0.013800016
C  C397  1  0.82730000  0.89320000  0.20491000  1.0 -0.013800016
C  C398  1  0.17270000  0.10680000  0.20491000  1.0 -0.013800016
C  C399  1  0.17270000  0.89320000  0.79509000  1.0 -0.013800016
C  C400  1  0.82730000  0.10680000  0.79509000  1.0 -0.013800016
C  C401  1  0.67270000  0.60680000  0.79509000  1.0 -0.013800016
C  C402  1  0.32730000  0.39320000  0.79509000  1.0 -0.013800016
C  C403  1  0.32730000  0.60680000  0.20491000  1.0 -0.013800016
C  C404  1  0.67270000  0.39320000  0.20491000  1.0 -0.013800016
C  C405  1  0.67270000  0.10680000  0.29509000  1.0 -0.013800016
C  C406  1  0.32730000  0.89320000  0.29509000  1.0 -0.013800016
C  C407  1  0.32730000  0.10680000  0.70491000  1.0 -0.013800016
C  C408  1  0.67270000  0.89320000  0.70491000  1.0 -0.013800016
C  C409  1  0.17270000  0.60680000  0.29509000  1.0 -0.013800016
C  C410  1  0.82730000  0.39320000  0.29509000  1.0 -0.013800016
C  C411  1  0.82730000  0.60680000  0.70491000  1.0 -0.013800016
C  C412  1  0.17270000  0.39320000  0.70491000  1.0 -0.013800016
C  C413  1  0.17270000  0.10680000  0.79509000  1.0 -0.013800016
C  C414  1  0.82730000  0.89320000  0.79509000  1.0 -0.013800016
C  C415  1  0.82730000  0.10680000  0.20491000  1.0 -0.013800016
C  C416  1  0.17270000  0.89320000  0.20491000  1.0 -0.013800016
C  C417  1  0.36650000  0.36920000  0.22096000  1.0 -0.103036046
C  C418  1  0.63350000  0.63080000  0.22096000  1.0 -0.103036046
C  C419  1  0.63350000  0.36920000  0.77904000  1.0 -0.103036046
C  C420  1  0.36650000  0.63080000  0.77904000  1.0 -0.103036046
C  C421  1  0.36650000  0.86920000  0.72096000  1.0 -0.103036046
C  C422  1  0.63350000  0.13080000  0.72096000  1.0 -0.103036046
C  C423  1  0.63350000  0.86920000  0.27904000  1.0 -0.103036046
C  C424  1  0.36650000  0.13080000  0.27904000  1.0 -0.103036046
C  C425  1  0.86650000  0.36920000  0.72096000  1.0 -0.103036046
C  C426  1  0.13350000  0.63080000  0.72096000  1.0 -0.103036046
C  C427  1  0.13350000  0.36920000  0.27904000  1.0 -0.103036046
C  C428  1  0.86650000  0.63080000  0.27904000  1.0 -0.103036046
C  C429  1  0.86650000  0.86920000  0.22096000  1.0 -0.103036046
C  C430  1  0.13350000  0.13080000  0.22096000  1.0 -0.103036046
C  C431  1  0.13350000  0.86920000  0.77904000  1.0 -0.103036046
C  C432  1  0.86650000  0.13080000  0.77904000  1.0 -0.103036046
C  C433  1  0.63350000  0.63080000  0.77904000  1.0 -0.103036046
C  C434  1  0.36650000  0.36920000  0.77904000  1.0 -0.103036046
C  C435  1  0.36650000  0.63080000  0.22096000  1.0 -0.103036046
C  C436  1  0.63350000  0.36920000  0.22096000  1.0 -0.103036046
C  C437  1  0.63350000  0.13080000  0.27904000  1.0 -0.103036046
C  C438  1  0.36650000  0.86920000  0.27904000  1.0 -0.103036046
C  C439  1  0.36650000  0.13080000  0.72096000  1.0 -0.103036046
C  C440  1  0.63350000  0.86920000  0.72096000  1.0 -0.103036046
C  C441  1  0.13350000  0.63080000  0.27904000  1.0 -0.103036046
C  C442  1  0.86650000  0.36920000  0.27904000  1.0 -0.103036046
C  C443  1  0.86650000  0.63080000  0.72096000  1.0 -0.103036046
C  C444  1  0.13350000  0.36920000  0.72096000  1.0 -0.103036046
C  C445  1  0.13350000  0.13080000  0.77904000  1.0 -0.103036046
C  C446  1  0.86650000  0.86920000  0.77904000  1.0 -0.103036046
C  C447  1  0.86650000  0.13080000  0.22096000  1.0 -0.103036046
C  C448  1  0.13350000  0.86920000  0.22096000  1.0 -0.103036046
C  C449  1  0.30180000  0.43440000  0.22106000  1.0 0.5738654388
C  C450  1  0.69820000  0.56560000  0.22106000  1.0 0.5750939954
C  C451  1  0.69820000  0.43440000  0.77894000  1.0 0.5738654388
C  C452  1  0.30180000  0.56560000  0.77894000  1.0 0.5738654388
C  C453  1  0.30180000  0.93440000  0.72106000  1.0 0.5738654388
C  C454  1  0.69820000  0.06560000  0.72106000  1.0 0.5738654388
C  C455  1  0.69820000  0.93440000  0.27894000  1.0 0.5750939954
C  C456  1  0.30180000  0.06560000  0.27894000  1.0 0.5738654388
C  C457  1  0.80180000  0.43440000  0.72106000  1.0 0.5738654388
C  C458  1  0.19820000  0.56560000  0.72106000  1.0 0.5738654388
C  C459  1  0.19820000  0.43440000  0.27894000  1.0 0.5738654388
C  C460  1  0.80180000  0.56560000  0.27894000  1.0 0.5750939954
C  C461  1  0.80180000  0.93440000  0.22106000  1.0 0.5750939954
C  C462  1  0.19820000  0.06560000  0.22106000  1.0 0.5738654388
C  C463  1  0.19820000  0.93440000  0.77894000  1.0 0.5738654388
C  C464  1  0.80180000  0.06560000  0.77894000  1.0 0.5738654388
C  C465  1  0.69820000  0.56560000  0.77894000  1.0 0.5738654388
C  C466  1  0.30180000  0.43440000  0.77894000  1.0 0.5738654388
C  C467  1  0.30180000  0.56560000  0.22106000  1.0 0.5738654388
C  C468  1  0.69820000  0.43440000  0.22106000  1.0 0.5750939954
C  C469  1  0.69820000  0.06560000  0.27894000  1.0 0.5738654388
C  C470  1  0.30180000  0.93440000  0.27894000  1.0 0.5738654388
C  C471  1  0.30180000  0.06560000  0.72106000  1.0 0.5738654388
C  C472  1  0.69820000  0.93440000  0.72106000  1.0 0.5738654388
C  C473  1  0.19820000  0.56560000  0.27894000  1.0 0.5738654388
C  C474  1  0.80180000  0.43440000  0.27894000  1.0 0.5738654388
C  C475  1  0.80180000  0.56560000  0.72106000  1.0 0.5738654388
C  C476  1  0.19820000  0.43440000  0.72106000  1.0 0.5738654388
C  C477  1  0.19820000  0.06560000  0.77894000  1.0 0.5738654388
C  C478  1  0.80180000  0.93440000  0.77894000  1.0 0.5738654388
C  C479  1  0.80180000  0.06560000  0.22106000  1.0 0.5738654388
C  C480  1  0.19820000  0.93440000  0.22106000  1.0 0.5750939954
C  C481  1  0.43000000  0.30200000  0.22397000  1.0 0.5738654388
C  C482  1  0.57000000  0.69800000  0.22397000  1.0 0.5738654388
C  C483  1  0.57000000  0.30200000  0.77603000  1.0 0.5738654388
C  C484  1  0.43000000  0.69800000  0.77603000  1.0 0.5738654388
C  C485  1  0.43000000  0.80200000  0.72397000  1.0 0.5738654388
C  C486  1  0.57000000  0.19800000  0.72397000  1.0 0.5738654388
C  C487  1  0.57000000  0.80200000  0.27603000  1.0 0.5738654388
C  C488  1  0.43000000  0.19800000  0.27603000  1.0 0.5738654388
C  C489  1  0.93000000  0.30200000  0.72397000  1.0 0.5738654388
C  C490  1  0.07000000  0.69800000  0.72397000  1.0 0.5738654388
C  C491  1  0.07000000  0.30200000  0.27603000  1.0 0.5738654388
C  C492  1  0.93000000  0.69800000  0.27603000  1.0 0.5738654388
C  C493  1  0.93000000  0.80200000  0.22397000  1.0 0.5738654388
C  C494  1  0.07000000  0.19800000  0.22397000  1.0 0.5738654388
C  C495  1  0.07000000  0.80200000  0.77603000  1.0 0.5738654388
C  C496  1  0.93000000  0.19800000  0.77603000  1.0 0.5738654388
C  C497  1  0.57000000  0.69800000  0.77603000  1.0 0.5738654388
C  C498  1  0.43000000  0.30200000  0.77603000  1.0 0.5738654388
C  C499  1  0.43000000  0.69800000  0.22397000  1.0 0.5738654388
C  C500  1  0.57000000  0.30200000  0.22397000  1.0 0.5738654388
C  C501  1  0.57000000  0.19800000  0.27603000  1.0 0.5738654388
C  C502  1  0.43000000  0.80200000  0.27603000  1.0 0.5738654388
C  C503  1  0.43000000  0.19800000  0.72397000  1.0 0.5738654388
C  C504  1  0.57000000  0.80200000  0.72397000  1.0 0.5738654388
C  C505  1  0.07000000  0.69800000  0.27603000  1.0 0.5738654388
C  C506  1  0.93000000  0.30200000  0.27603000  1.0 0.5738654388
C  C507  1  0.93000000  0.69800000  0.72397000  1.0 0.5738654388
C  C508  1  0.07000000  0.30200000  0.72397000  1.0 0.5738654388
C  C509  1  0.07000000  0.19800000  0.77603000  1.0 0.5738654388
C  C510  1  0.93000000  0.80200000  0.77603000  1.0 0.5738654388
C  C511  1  0.93000000  0.19800000  0.22397000  1.0 0.5738654388
C  C512  1  0.07000000  0.80200000  0.22397000  1.0 0.5738654388
O  O1  1  0.26206000  0.45080000  0.20720000  1.0 -0.5282614099
O  O2  1  0.73794000  0.54920000  0.20720000  1.0 -0.5282614099
O  O3  1  0.73794000  0.45080000  0.79280000  1.0 -0.5282614099
O  O4  1  0.26206000  0.54920000  0.79280000  1.0 -0.5282614099
O  O5  1  0.26206000  0.95080000  0.70720000  1.0 -0.5282614099
O  O6  1  0.73794000  0.04920000  0.70720000  1.0 -0.5282614099
O  O7  1  0.73794000  0.95080000  0.29280000  1.0 -0.5282614099
O  O8  1  0.26206000  0.04920000  0.29280000  1.0 -0.5282614099
O  O9  1  0.76206000  0.45080000  0.70720000  1.0 -0.5282614099
O  O10  1  0.23794000  0.54920000  0.70720000  1.0 -0.5282614099
O  O11  1  0.23794000  0.45080000  0.29280000  1.0 -0.5282614099
O  O12  1  0.76206000  0.54920000  0.29280000  1.0 -0.5282614099
O  O13  1  0.76206000  0.95080000  0.20720000  1.0 -0.5282614099
O  O14  1  0.23794000  0.04920000  0.20720000  1.0 -0.5282614099
O  O15  1  0.23794000  0.95080000  0.79280000  1.0 -0.5282614099
O  O16  1  0.76206000  0.04920000  0.79280000  1.0 -0.5282614099
O  O17  1  0.73794000  0.54920000  0.79280000  1.0 -0.5282614099
O  O18  1  0.26206000  0.45080000  0.79280000  1.0 -0.5282614099
O  O19  1  0.26206000  0.54920000  0.20720000  1.0 -0.5282614099
O  O20  1  0.73794000  0.45080000  0.20720000  1.0 -0.5282614099
O  O21  1  0.73794000  0.04920000  0.29280000  1.0 -0.5282614099
O  O22  1  0.26206000  0.95080000  0.29280000  1.0 -0.5282614099
O  O23  1  0.26206000  0.04920000  0.70720000  1.0 -0.5282614099
O  O24  1  0.73794000  0.95080000  0.70720000  1.0 -0.5282614099
O  O25  1  0.23794000  0.54920000  0.29280000  1.0 -0.5282614099
O  O26  1  0.76206000  0.45080000  0.29280000  1.0 -0.5282614099
O  O27  1  0.76206000  0.54920000  0.70720000  1.0 -0.5282614099
O  O28  1  0.23794000  0.45080000  0.70720000  1.0 -0.5282614099
O  O29  1  0.23794000  0.04920000  0.79280000  1.0 -0.5282614099
O  O30  1  0.76206000  0.95080000  0.79280000  1.0 -0.5282614099
O  O31  1  0.76206000  0.04920000  0.20720000  1.0 -0.5282614099
O  O32  1  0.23794000  0.95080000  0.20720000  1.0 -0.5282614099
O  O33  1  0.44563000  0.26624000  0.20993000  1.0 -0.5205291675
O  O34  1  0.55437000  0.73376000  0.20993000  1.0 -0.5205291675
O  O35  1  0.55437000  0.26624000  0.79007000  1.0 -0.5205291675
O  O36  1  0.44563000  0.73376000  0.79007000  1.0 -0.5205291675
O  O37  1  0.44563000  0.76624000  0.70993000  1.0 -0.5205291675
O  O38  1  0.55437000  0.23376000  0.70993000  1.0 -0.5205291675
O  O39  1  0.55437000  0.76624000  0.29007000  1.0 -0.5205291675
O  O40  1  0.44563000  0.23376000  0.29007000  1.0 -0.5205291675
O  O41  1  0.94563000  0.26624000  0.70993000  1.0 -0.5205291675
O  O42  1  0.05437000  0.73376000  0.70993000  1.0 -0.5205291675
O  O43  1  0.05437000  0.26624000  0.29007000  1.0 -0.5205291675
O  O44  1  0.94563000  0.73376000  0.29007000  1.0 -0.5205291675
O  O45  1  0.94563000  0.76624000  0.20993000  1.0 -0.5205291675
O  O46  1  0.05437000  0.23376000  0.20993000  1.0 -0.5205291675
O  O47  1  0.05437000  0.76624000  0.79007000  1.0 -0.5205291675
O  O48  1  0.94563000  0.23376000  0.79007000  1.0 -0.5205291675
O  O49  1  0.55437000  0.73376000  0.79007000  1.0 -0.5205291675
O  O50  1  0.44563000  0.26624000  0.79007000  1.0 -0.5205291675
O  O51  1  0.44563000  0.73376000  0.20993000  1.0 -0.5205291675
O  O52  1  0.55437000  0.26624000  0.20993000  1.0 -0.5205291675
O  O53  1  0.55437000  0.23376000  0.29007000  1.0 -0.5205291675
O  O54  1  0.44563000  0.76624000  0.29007000  1.0 -0.5205291675
O  O55  1  0.44563000  0.23376000  0.70993000  1.0 -0.5205291675
O  O56  1  0.55437000  0.76624000  0.70993000  1.0 -0.5205291675
O  O57  1  0.05437000  0.73376000  0.29007000  1.0 -0.5205291675
O  O58  1  0.94563000  0.26624000  0.29007000  1.0 -0.5205291675
O  O59  1  0.94563000  0.73376000  0.70993000  1.0 -0.5205291675
O  O60  1  0.05437000  0.26624000  0.70993000  1.0 -0.5205291675
O  O61  1  0.05437000  0.23376000  0.79007000  1.0 -0.5205291675
O  O62  1  0.94563000  0.76624000  0.79007000  1.0 -0.5205291675
O  O63  1  0.94563000  0.23376000  0.20993000  1.0 -0.5205291675
O  O64  1  0.05437000  0.76624000  0.20993000  1.0 -0.5205291675
O  O65  1  0.17956000  0.44923000  0.25223000  1.0 -0.5282614099
O  O66  1  0.82044000  0.55077000  0.25223000  1.0 -0.5282614099
O  O67  1  0.82044000  0.44923000  0.74777000  1.0 -0.5205291675
O  O68  1  0.17956000  0.55077000  0.74777000  1.0 -0.5205291675
O  O69  1  0.17956000  0.94923000  0.75223000  1.0 -0.5205291675
O  O70  1  0.82044000  0.05077000  0.75223000  1.0 -0.5205291675
O  O71  1  0.82044000  0.94923000  0.24777000  1.0 -0.5282614099
O  O72  1  0.17956000  0.05077000  0.24777000  1.0 -0.5282614099
O  O73  1  0.67956000  0.44923000  0.75223000  1.0 -0.5205291675
O  O74  1  0.32044000  0.55077000  0.75223000  1.0 -0.5205291675
O  O75  1  0.32044000  0.44923000  0.24777000  1.0 -0.5282614099
O  O76  1  0.67956000  0.55077000  0.24777000  1.0 -0.5282614099
O  O77  1  0.67956000  0.94923000  0.25223000  1.0 -0.5282614099
O  O78  1  0.32044000  0.05077000  0.25223000  1.0 -0.5282614099
O  O79  1  0.32044000  0.94923000  0.74777000  1.0 -0.5205291675
O  O80  1  0.67956000  0.05077000  0.74777000  1.0 -0.5205291675
O  O81  1  0.82044000  0.55077000  0.74777000  1.0 -0.5205291675
O  O82  1  0.17956000  0.44923000  0.74777000  1.0 -0.5205291675
O  O83  1  0.17956000  0.55077000  0.25223000  1.0 -0.5282614099
O  O84  1  0.82044000  0.44923000  0.25223000  1.0 -0.5282614099
O  O85  1  0.82044000  0.05077000  0.24777000  1.0 -0.5282614099
O  O86  1  0.17956000  0.94923000  0.24777000  1.0 -0.5282614099
O  O87  1  0.17956000  0.05077000  0.75223000  1.0 -0.5205291675
O  O88  1  0.82044000  0.94923000  0.75223000  1.0 -0.5205291675
O  O89  1  0.32044000  0.55077000  0.24777000  1.0 -0.5282614099
O  O90  1  0.67956000  0.44923000  0.24777000  1.0 -0.5282614099
O  O91  1  0.67956000  0.55077000  0.75223000  1.0 -0.5205291675
O  O92  1  0.32044000  0.44923000  0.75223000  1.0 -0.5205291675
O  O93  1  0.32044000  0.05077000  0.74777000  1.0 -0.5205291675
O  O94  1  0.67956000  0.94923000  0.74777000  1.0 -0.5205291675
O  O95  1  0.67956000  0.05077000  0.25223000  1.0 -0.5282614099
O  O96  1  0.32044000  0.94923000  0.25223000  1.0 -0.5282614099
O  O97  1  0.55539000  0.18329000  0.24847000  1.0 -0.5111166205
O  O98  1  0.44461000  0.81671000  0.24847000  1.0 -0.5111166205
O  O99  1  0.44461000  0.18329000  0.75153000  1.0 -0.5111166205
O  O100  1  0.55539000  0.81671000  0.75153000  1.0 -0.5111166205
O  O101  1  0.55539000  0.68329000  0.74847000  1.0 -0.5111166205
O  O102  1  0.44461000  0.31671000  0.74847000  1.0 -0.5111166205
O  O103  1  0.44461000  0.68329000  0.25153000  1.0 -0.5111166205
O  O104  1  0.55539000  0.31671000  0.25153000  1.0 -0.5111166205
O  O105  1  0.05539000  0.18329000  0.74847000  1.0 -0.5111166205
O  O106  1  0.94461000  0.81671000  0.74847000  1.0 -0.5111166205
O  O107  1  0.94461000  0.18329000  0.25153000  1.0 -0.5111166205
O  O108  1  0.05539000  0.81671000  0.25153000  1.0 -0.5111166205
O  O109  1  0.05539000  0.68329000  0.24847000  1.0 -0.5111166205
O  O110  1  0.94461000  0.31671000  0.24847000  1.0 -0.5111166205
O  O111  1  0.94461000  0.68329000  0.75153000  1.0 -0.5111166205
O  O112  1  0.05539000  0.31671000  0.75153000  1.0 -0.5111166205
O  O113  1  0.44461000  0.81671000  0.75153000  1.0 -0.5111166205
O  O114  1  0.55539000  0.18329000  0.75153000  1.0 -0.5111166205
O  O115  1  0.55539000  0.81671000  0.24847000  1.0 -0.5111166205
O  O116  1  0.44461000  0.18329000  0.24847000  1.0 -0.5111166205
O  O117  1  0.44461000  0.31671000  0.25153000  1.0 -0.5111166205
O  O118  1  0.55539000  0.68329000  0.25153000  1.0 -0.5111166205
O  O119  1  0.55539000  0.31671000  0.74847000  1.0 -0.5111166205
O  O120  1  0.44461000  0.68329000  0.74847000  1.0 -0.5111166205
O  O121  1  0.94461000  0.81671000  0.25153000  1.0 -0.5111166205
O  O122  1  0.05539000  0.18329000  0.25153000  1.0 -0.5111166205
O  O123  1  0.05539000  0.81671000  0.74847000  1.0 -0.5111166205
O  O124  1  0.94461000  0.18329000  0.74847000  1.0 -0.5111166205
O  O125  1  0.94461000  0.31671000  0.75153000  1.0 -0.5111166205
O  O126  1  0.05539000  0.68329000  0.75153000  1.0 -0.5111166205
O  O127  1  0.05539000  0.31671000  0.24847000  1.0 -0.5111166205
O  O128  1  0.94461000  0.68329000  0.24847000  1.0 -0.5111166205
O  O129  1  0.50000000  0.18200000  0.17977000  1.0 -0.3936665845
O  O130  1  0.50000000  0.81800000  0.17977000  1.0 -0.3936665845
O  O131  1  0.50000000  0.18200000  0.82023000  1.0 -0.4006391606
O  O132  1  0.50000000  0.81800000  0.82023000  1.0 -0.4006391606
O  O133  1  0.50000000  0.68200000  0.67977000  1.0 -0.4006391606
O  O134  1  0.50000000  0.31800000  0.67977000  1.0 -0.4006391606
O  O135  1  0.50000000  0.68200000  0.32023000  1.0 -0.4006391606
O  O136  1  0.50000000  0.31800000  0.32023000  1.0 -0.4006391606
O  O137  1  0.00000000  0.18200000  0.67977000  1.0 -0.4006391606
O  O138  1  0.00000000  0.81800000  0.67977000  1.0 -0.4006391606
O  O139  1  0.00000000  0.18200000  0.32023000  1.0 -0.4006391606
O  O140  1  0.00000000  0.81800000  0.32023000  1.0 -0.4006391606
O  O141  1  0.00000000  0.68200000  0.17977000  1.0 -0.3936665845
O  O142  1  0.00000000  0.31800000  0.17977000  1.0 -0.3936665845
O  O143  1  0.00000000  0.68200000  0.82023000  1.0 -0.4006391606
O  O144  1  0.00000000  0.31800000  0.82023000  1.0 -0.4006391606
O  O145  1  0.16290000  0.50000000  0.18471000  1.0 -0.3669532132
O  O146  1  0.83710000  0.50000000  0.18471000  1.0 -0.3669532132
O  O147  1  0.83710000  0.50000000  0.81529000  1.0 -0.3607453869
O  O148  1  0.16290000  0.50000000  0.81529000  1.0 -0.3607453869
O  O149  1  0.16290000  0.00000000  0.68471000  1.0 -0.3607453869
O  O150  1  0.83710000  0.00000000  0.68471000  1.0 -0.3607453869
O  O151  1  0.83710000  0.00000000  0.31529000  1.0 -0.3607453869
O  O152  1  0.16290000  0.00000000  0.31529000  1.0 -0.3607453869
O  O153  1  0.66290000  0.50000000  0.68471000  1.0 -0.3607453869
O  O154  1  0.33710000  0.50000000  0.68471000  1.0 -0.3607453869
O  O155  1  0.33710000  0.50000000  0.31529000  1.0 -0.3607453869
O  O156  1  0.66290000  0.50000000  0.31529000  1.0 -0.3607453869
O  O157  1  0.66290000  0.00000000  0.18471000  1.0 -0.3669532132
O  O158  1  0.33710000  0.00000000  0.18471000  1.0 -0.3669532132
O  O159  1  0.33710000  0.00000000  0.81529000  1.0 -0.3607453869
O  O160  1  0.66290000  0.00000000  0.81529000  1.0 -0.3607453869
